(PID.TID 0000.0001) 
(PID.TID 0000.0001) // ======================================================
(PID.TID 0000.0001) //                      MITgcm UV
(PID.TID 0000.0001) //                      =========
(PID.TID 0000.0001) // ======================================================
(PID.TID 0000.0001) // execution environment starting up...
(PID.TID 0000.0001) 
(PID.TID 0000.0001) // MITgcmUV version:  checkpoint66o
(PID.TID 0000.0001) // Build user:        cess
(PID.TID 0000.0001) // Build host:        psn010
(PID.TID 0000.0001) // Build date:        Wed Mar 21 10:50:16 CST 2018
(PID.TID 0000.0001) 
(PID.TID 0000.0001) // =======================================================
(PID.TID 0000.0001) // Execution Environment parameter file "eedata"
(PID.TID 0000.0001) // =======================================================
(PID.TID 0000.0001) ># Example "eedata" file
(PID.TID 0000.0001) ># Lines beginning "#" are comments
(PID.TID 0000.0001) ># nTx - No. threads per process in X
(PID.TID 0000.0001) ># nTy - No. threads per process in Y
(PID.TID 0000.0001) > &EEPARMS
(PID.TID 0000.0001) > /
(PID.TID 0000.0001) ># Note: Some systems use & as the
(PID.TID 0000.0001) ># namelist terminator. Other systems
(PID.TID 0000.0001) ># use a / character (as shown here).
(PID.TID 0000.0001) 
(PID.TID 0000.0001) // =======================================================
(PID.TID 0000.0001) // Computational Grid Specification ( see files "SIZE.h" )
(PID.TID 0000.0001) //                                  ( and "eedata"       )
(PID.TID 0000.0001) // =======================================================
(PID.TID 0000.0001)      nPx =    1 ; /* No. processes in X */
(PID.TID 0000.0001)      nPy =    1 ; /* No. processes in Y */
(PID.TID 0000.0001)      nSx =    1 ; /* No. tiles in X per process */
(PID.TID 0000.0001)      nSy =    1 ; /* No. tiles in Y per process */
(PID.TID 0000.0001)      sNx =  400 ; /* Tile size in X */
(PID.TID 0000.0001)      sNy =    1 ; /* Tile size in Y */
(PID.TID 0000.0001)      OLx =    4 ; /* Tile overlap distance in X */
(PID.TID 0000.0001)      OLy =    4 ; /* Tile overlap distance in Y */
(PID.TID 0000.0001)      nTx =    1 ; /* No. threads in X per process */
(PID.TID 0000.0001)      nTy =    1 ; /* No. threads in Y per process */
(PID.TID 0000.0001)       Nr =  100 ; /* No. levels in the vertical   */
(PID.TID 0000.0001)       Nx =  400 ; /* Total domain size in X ( = nPx*nSx*sNx ) */
(PID.TID 0000.0001)       Ny =    1 ; /* Total domain size in Y ( = nPy*nSy*sNy ) */
(PID.TID 0000.0001)   nTiles =    1 ; /* Total no. tiles per process ( = nSx*nSy ) */
(PID.TID 0000.0001)   nProcs =    1 ; /* Total no. processes ( = nPx*nPy ) */
(PID.TID 0000.0001) nThreads =    1 ; /* Total no. threads per process ( = nTx*nTy ) */
(PID.TID 0000.0001) usingMPI =    F ; /* Flag used to control whether MPI is in use */
(PID.TID 0000.0001)                   /*  note: To execute a program with MPI calls */
(PID.TID 0000.0001)                   /*  it must be launched appropriately e.g     */
(PID.TID 0000.0001)                   /*  "mpirun -np 64 ......"                    */
(PID.TID 0000.0001) useCoupler=    F ;/* Flag used to control communications with   */
(PID.TID 0000.0001)                   /*  other model components, through a coupler */
(PID.TID 0000.0001) debugMode =    F ; /* print debug msg. (sequence of S/R calls)  */
(PID.TID 0000.0001) printMapIncludesZeros=    F ; /* print zeros in Std.Output maps */
(PID.TID 0000.0001) maxLengthPrt1D=   65 /* maxLength of 1D array printed to StdOut */
(PID.TID 0000.0001) 
(PID.TID 0000.0001) // ======================================================
(PID.TID 0000.0001) // Mapping of tiles to threads
(PID.TID 0000.0001) // ======================================================
(PID.TID 0000.0001) // -o- Thread   1, tiles (   1:   1,   1:   1)
(PID.TID 0000.0001) 
(PID.TID 0000.0001) // ======================================================
(PID.TID 0000.0001) // Tile <-> Tile connectvity table
(PID.TID 0000.0001) // ======================================================
(PID.TID 0000.0001) // Tile number: 000001 (process no. = 000000)
(PID.TID 0000.0001) //        WEST: Tile = 000001, Process = 000000, Comm = put
(PID.TID 0000.0001) //                bi = 000001, bj = 000001
(PID.TID 0000.0001) //        EAST: Tile = 000001, Process = 000000, Comm = put
(PID.TID 0000.0001) //                bi = 000001, bj = 000001
(PID.TID 0000.0001) //       SOUTH: Tile = 000001, Process = 000000, Comm = put
(PID.TID 0000.0001) //                bi = 000001, bj = 000001
(PID.TID 0000.0001) //       NORTH: Tile = 000001, Process = 000000, Comm = put
(PID.TID 0000.0001) //                bi = 000001, bj = 000001
(PID.TID 0000.0001) 
(PID.TID 0000.0001)  INI_PARMS: opening model parameter file "data"
(PID.TID 0000.0001)  OPEN_COPY_DATA_FILE: opening file data
(PID.TID 0000.0001) // =======================================================
(PID.TID 0000.0001) // Parameter file "data"
(PID.TID 0000.0001) // =======================================================
(PID.TID 0000.0001) ># ====================
(PID.TID 0000.0001) ># | Model parameters |
(PID.TID 0000.0001) ># ====================
(PID.TID 0000.0001) >#
(PID.TID 0000.0001) ># See src/ini_parms.F for possible parameters.
(PID.TID 0000.0001) >#
(PID.TID 0000.0001) ># Continuous equation parameters
(PID.TID 0000.0001) > &PARM01
(PID.TID 0000.0001) > tRefFile='TRef.bin'
(PID.TID 0000.0001) > sRef= 25*35.,
(PID.TID 0000.0001) > viscAz=1.E-5,
(PID.TID 0000.0001) > viscAh=1.0E-4,
(PID.TID 0000.0001) > no_slip_sides=.FALSE.,
(PID.TID 0000.0001) > no_slip_bottom=.FALSE.,
(PID.TID 0000.0001) > viscA4=0.E12,
(PID.TID 0000.0001) > diffKhT=1.0E-4,
(PID.TID 0000.0001) > diffKzT=1.E-5,
(PID.TID 0000.0001) > diffKhS=1.E3,
(PID.TID 0000.0001) > diffKzS=1.E-5,
(PID.TID 0000.0001) > f0=0.E-4,
(PID.TID 0000.0001) > beta=0.02E-11,
(PID.TID 0000.0001) > tAlpha=2.E-4,
(PID.TID 0000.0001) > sBeta =0.E-4,
(PID.TID 0000.0001) > gravity=9.81,
(PID.TID 0000.0001) > gBaro=9.81,
(PID.TID 0000.0001) > rigidLid=.FALSE.,
(PID.TID 0000.0001) > implicitFreeSurface=.TRUE.,
(PID.TID 0000.0001) > eosType='LINEAR',
(PID.TID 0000.0001) > nonHydrostatic=.TRUE.,
(PID.TID 0000.0001) > readBinaryPrec=64,
(PID.TID 0000.0001) > useSingleCpuIO=.TRUE.
(PID.TID 0000.0001) > writeBinaryPrec=64,
(PID.TID 0000.0001) > writeStatePrec=64,
(PID.TID 0000.0001) > saltStepping=.FALSE.,
(PID.TID 0000.0001) ># minimum cell fraction.  This reduces steppiness..
(PID.TID 0000.0001) >  hFacMin=0.1,
(PID.TID 0000.0001) ># implicSurfPress=0.5,
(PID.TID 0000.0001) ># implicDiv2DFlow=0.5,
(PID.TID 0000.0001) ># nonlinFreeSurf=3,
(PID.TID 0000.0001) ># hFacInf=0.2,
(PID.TID 0000.0001) ># hFacSup=1.8,
(PID.TID 0000.0001) >  exactConserv=.FALSE.,
(PID.TID 0000.0001) >  implicitDiffusion=.TRUE.
(PID.TID 0000.0001) >  implicitViscosity=.TRUE.
(PID.TID 0000.0001) ># Superbee on:
(PID.TID 0000.0001) > tempAdvScheme=77,
(PID.TID 0000.0001) > staggerTimeStep=.TRUE.,
(PID.TID 0000.0001) >/
(PID.TID 0000.0001) >
(PID.TID 0000.0001) ># Elliptic solver parameters
(PID.TID 0000.0001) > &PARM02
(PID.TID 0000.0001) > cg2dMaxIters=1000,
(PID.TID 0000.0001) > cg2dTargetResidual=1.E-13,
(PID.TID 0000.0001) > cg3dMaxIters=400,
(PID.TID 0000.0001) > cg3dTargetResidual=1.E-13,
(PID.TID 0000.0001) >/
(PID.TID 0000.0001) >
(PID.TID 0000.0001) ># Time stepping parameters
(PID.TID 0000.0001) > &PARM03
(PID.TID 0000.0001) > niter0=0,
(PID.TID 0000.0001) ># times are in s
(PID.TID 0000.0001) > startTime=0,
(PID.TID 0000.0001) ># endTime=3600,
(PID.TID 0000.0001) > endTime=15000,
(PID.TID 0000.0001) > deltaT=6,
(PID.TID 0000.0001) > abEps=0.1,
(PID.TID 0000.0001) ># once per tide checkpoint...
(PID.TID 0000.0001) > pChkptFreq=21600,
(PID.TID 0000.0001) > chkptFreq=0.0,
(PID.TID 0000.0001) > dumpFreq=300,
(PID.TID 0000.0001) > monitorFreq=7200,
(PID.TID 0000.0001) ># Forcing for boundary condition files
(PID.TID 0000.0001) > periodicExternalForcing=.FALSE.,
(PID.TID 0000.0001) >/
(PID.TID 0000.0001) >
(PID.TID 0000.0001) ># Gridding parameters
(PID.TID 0000.0001) > &PARM04
(PID.TID 0000.0001) > usingCartesianGrid=.TRUE.,
** Warning ** DIAGNOSTICS_READPARMS: ignores "data.diagnostics" file since
** Warning ** DIAGNOSTICS_READPARMS: useDiagnostics= F (set from "data.pkg")
(PID.TID 0000.0001) > usingSphericalPolarGrid=.FALSE.,
(PID.TID 0000.0001) > delXfile='delXvar.bin',
(PID.TID 0000.0001) > delY=5.e3,
(PID.TID 0000.0001) > delRfile = 'delZvar.bin',
(PID.TID 0000.0001) >/
(PID.TID 0000.0001) >
(PID.TID 0000.0001) ># Input datasets
(PID.TID 0000.0001) > &PARM05
(PID.TID 0000.0001) > bathyFile='topo.bin',
(PID.TID 0000.0001) > mdsioLocalDir='../../',
(PID.TID 0000.0001) > hydrogThetaFile='T0.bin',
(PID.TID 0000.0001) > uVelInitFile='U0.bin',
(PID.TID 0000.0001) > /
(PID.TID 0000.0001) 
(PID.TID 0000.0001)  INI_PARMS ; starts to read PARM01
(PID.TID 0000.0001)  INI_PARMS ; read PARM01 : OK
(PID.TID 0000.0001)  INI_PARMS ; starts to read PARM02
(PID.TID 0000.0001)  INI_PARMS ; read PARM02 : OK
(PID.TID 0000.0001)  INI_PARMS ; starts to read PARM03
(PID.TID 0000.0001)  INI_PARMS ; read PARM03 : OK
(PID.TID 0000.0001)  INI_PARMS ; starts to read PARM04
(PID.TID 0000.0001)  INI_PARMS ; read PARM04 : OK
(PID.TID 0000.0001)  INI_PARMS ; starts to read PARM05
(PID.TID 0000.0001)  INI_PARMS ; read PARM05 : OK
(PID.TID 0000.0001)  INI_PARMS: finished reading file "data"
(PID.TID 0000.0001)  PACKAGES_BOOT: opening data.pkg
(PID.TID 0000.0001)  OPEN_COPY_DATA_FILE: opening file data.pkg
(PID.TID 0000.0001) // =======================================================
(PID.TID 0000.0001) // Parameter file "data.pkg"
(PID.TID 0000.0001) // =======================================================
(PID.TID 0000.0001) ># Packages
(PID.TID 0000.0001) > &PACKAGES
(PID.TID 0000.0001) > useOBCS=.TRUE.,
(PID.TID 0000.0001) > useKL10=.TRUE.,
(PID.TID 0000.0001) > useDIAGNOSTICS=.FALSE.,
(PID.TID 0000.0001) > useMNC=.FALSE.,
(PID.TID 0000.0001) > /
(PID.TID 0000.0001) 
(PID.TID 0000.0001)  PACKAGES_BOOT: finished reading data.pkg
(PID.TID 0000.0001)  PACKAGES_BOOT: On/Off package Summary
 --------  pkgs with a standard "usePKG" On/Off switch in "data.pkg":  --------
 pkg/obcs                 compiled   and   used ( useOBCS                  = T )
 pkg/kl10                 compiled   and   used ( useKL10                  = T )
 pkg/diagnostics          compiled but not used ( useDiagnostics           = F )
 -------- pkgs without standard "usePKG" On/Off switch in "data.pkg":  --------
 pkg/generic_advdiff      compiled   and   used ( useGAD                   = T )
 pkg/mom_common           compiled   and   used ( momStepping              = T )
 pkg/mom_vecinv           compiled but not used ( +vectorInvariantMomentum = F )
 pkg/mom_fluxform         compiled   and   used ( & not vectorInvariantMom = T )
 pkg/monitor              compiled   and   used ( monitorFreq > 0.         = T )
 pkg/timeave              compiled but not used ( taveFreq > 0.            = F )
 pkg/debug                compiled but not used ( debugMode                = F )
 pkg/rw                   compiled   and   used
 pkg/mdsio                compiled   and   used
(PID.TID 0000.0001)  PACKAGES_BOOT: End of package Summary
(PID.TID 0000.0001) 
(PID.TID 0000.0001)  OBCS_READPARMS: opening data.obcs
(PID.TID 0000.0001)  OPEN_COPY_DATA_FILE: opening file data.obcs
(PID.TID 0000.0001) // =======================================================
(PID.TID 0000.0001) // Parameter file "data.obcs"
(PID.TID 0000.0001) // =======================================================
(PID.TID 0000.0001) ># Open-boundaries
(PID.TID 0000.0001) > &OBCS_PARM01
(PID.TID 0000.0001) > OB_Iwest=1*1,
(PID.TID 0000.0001) > OB_Ieast=1*-1,
(PID.TID 0000.0001) > OB_Jnorth=80*0,
(PID.TID 0000.0001) > OB_Jsouth=80*0,
(PID.TID 0000.0001) > useOBCSsponge=.TRUE.,
(PID.TID 0000.0001) > OBEuFile = 'Ue.bin',
(PID.TID 0000.0001) > OBWuFile = 'Uw.bin',
(PID.TID 0000.0001) > OBEtFile = 'Te.bin',
(PID.TID 0000.0001) > OBWtFile = 'Tw.bin',
(PID.TID 0000.0001) > useOBCSprescribe=.TRUE.,
(PID.TID 0000.0001) > /
(PID.TID 0000.0001) >
(PID.TID 0000.0001) ># Orlanski parameters
(PID.TID 0000.0001) > &OBCS_PARM02
(PID.TID 0000.0001) >/
(PID.TID 0000.0001) >
(PID.TID 0000.0001) ># Sponge layer parameters
(PID.TID 0000.0001) > &OBCS_PARM03
(PID.TID 0000.0001) > Urelaxobcsinner=1000.,
(PID.TID 0000.0001) > Urelaxobcsbound=100.,
(PID.TID 0000.0001) > Vrelaxobcsinner=1000.0,
(PID.TID 0000.0001) > Vrelaxobcsbound=100.0,
(PID.TID 0000.0001) > spongeThickness=30,
(PID.TID 0000.0001) > /
(PID.TID 0000.0001) 
(PID.TID 0000.0001)  OBCS_READPARMS: finished reading data.obcs
(PID.TID 0000.0001)  OB_indexUnset = /* unset OB index value (i.e. no OB) */
(PID.TID 0000.0001)                       0
(PID.TID 0000.0001)     ;
(PID.TID 0000.0001)  Northern OB global indices : OB_Jnorth =
(PID.TID 0000.0001)   400 @        0                            /* I =  1:400 */
(PID.TID 0000.0001)  Southern OB global indices : OB_Jsouth =
(PID.TID 0000.0001)   400 @        0                            /* I =  1:400 */
(PID.TID 0000.0001)  Eastern  OB global indices : OB_Ieast =
(PID.TID 0000.0001)                     400                     /* J =  1 */
(PID.TID 0000.0001)  Western  OB global indices : OB_Iwest =
(PID.TID 0000.0001)                       1                     /* J =  1 */
(PID.TID 0000.0001) 
(PID.TID 0000.0001)  KL10_READPARMS: opening data.kl10
(PID.TID 0000.0001)  OPEN_COPY_DATA_FILE: opening file data.kl10
(PID.TID 0000.0001) // =======================================================
(PID.TID 0000.0001) // Parameter file "data.kl10"
(PID.TID 0000.0001) // =======================================================
(PID.TID 0000.0001) ># =====================================================================
(PID.TID 0000.0001) ># | Parameters for Klymak and Legg (2010) vertical mixing scheme      |
(PID.TID 0000.0001) ># =====================================================================
(PID.TID 0000.0001) > &KL10_PARM01
(PID.TID 0000.0001) > KLwriteState=.TRUE.,
(PID.TID 0000.0001) >/
(PID.TID 0000.0001) 
(PID.TID 0000.0001)  KL10_READPARMS: finished reading data.kl10
(PID.TID 0000.0001) SET_PARMS: done
==> SYSTEM CALL (from INI_MODEL_IO): > mkdir -p ../../0000 <
(PID.TID 0000.0001) 
(PID.TID 0000.0001)  MDS_READVEC_LOC: open file: delXvar.bin
(PID.TID 0000.0001) S/R LOAD_GRID_SPACING: delX loaded from file: delXvar.bin
(PID.TID 0000.0001)  MDS_READVEC_LOC: open file: delZvar.bin
(PID.TID 0000.0001) S/R LOAD_GRID_SPACING: delR loaded from file: delZvar.bin
(PID.TID 0000.0001) Enter INI_VERTICAL_GRID: setInterFDr=    T ; setCenterDr=    F
(PID.TID 0000.0001) %MON XC_max                       =   4.0872483443709E+05
(PID.TID 0000.0001) %MON XC_min                       =   1.2751655629139E+03
(PID.TID 0000.0001) %MON XC_mean                      =   2.0500000000000E+05
(PID.TID 0000.0001) %MON XC_sd                        =   8.2408027195681E+04
(PID.TID 0000.0001) %MON XG_max                       =   4.0744966887417E+05
(PID.TID 0000.0001) %MON XG_min                       =   4.5474735088646E-13
(PID.TID 0000.0001) %MON XG_mean                      =   2.0448750000000E+05
(PID.TID 0000.0001) %MON XG_sd                        =   8.2409028987204E+04
(PID.TID 0000.0001) %MON DXC_max                      =   2.5503311258278E+03
(PID.TID 0000.0001) %MON DXC_min                      =   1.0000000000000E+02
(PID.TID 0000.0001) %MON DXC_mean                     =   1.0250000000000E+03
(PID.TID 0000.0001) %MON DXC_sd                       =   8.1264954623580E+02
(PID.TID 0000.0001) %MON DXF_max                      =   2.5503311258278E+03
(PID.TID 0000.0001) %MON DXF_min                      =   1.0000000000000E+02
(PID.TID 0000.0001) %MON DXF_mean                     =   1.0250000000000E+03
(PID.TID 0000.0001) %MON DXF_sd                       =   8.1268033035903E+02
(PID.TID 0000.0001) %MON DXG_max                      =   2.5503311258278E+03
(PID.TID 0000.0001) %MON DXG_min                      =   1.0000000000000E+02
(PID.TID 0000.0001) %MON DXG_mean                     =   1.0250000000000E+03
(PID.TID 0000.0001) %MON DXG_sd                       =   8.1268033035903E+02
(PID.TID 0000.0001) %MON DXV_max                      =   2.5503311258278E+03
(PID.TID 0000.0001) %MON DXV_min                      =   1.0000000000000E+02
(PID.TID 0000.0001) %MON DXV_mean                     =   1.0250000000000E+03
(PID.TID 0000.0001) %MON DXV_sd                       =   8.1264954623580E+02
(PID.TID 0000.0001) %MON YC_max                       =   2.5000000000000E+03
(PID.TID 0000.0001) %MON YC_min                       =   2.5000000000000E+03
(PID.TID 0000.0001) %MON YC_mean                      =   2.5000000000000E+03
(PID.TID 0000.0001) %MON YC_sd                        =   0.0000000000000E+00
(PID.TID 0000.0001) %MON YG_max                       =   0.0000000000000E+00
(PID.TID 0000.0001) %MON YG_min                       =   0.0000000000000E+00
(PID.TID 0000.0001) %MON YG_mean                      =   0.0000000000000E+00
(PID.TID 0000.0001) %MON YG_sd                        =   0.0000000000000E+00
(PID.TID 0000.0001) %MON DYC_max                      =   5.0000000000000E+03
(PID.TID 0000.0001) %MON DYC_min                      =   5.0000000000000E+03
(PID.TID 0000.0001) %MON DYC_mean                     =   5.0000000000000E+03
(PID.TID 0000.0001) %MON DYC_sd                       =   0.0000000000000E+00
(PID.TID 0000.0001) %MON DYF_max                      =   5.0000000000000E+03
(PID.TID 0000.0001) %MON DYF_min                      =   5.0000000000000E+03
(PID.TID 0000.0001) %MON DYF_mean                     =   5.0000000000000E+03
(PID.TID 0000.0001) %MON DYF_sd                       =   0.0000000000000E+00
(PID.TID 0000.0001) %MON DYG_max                      =   5.0000000000000E+03
(PID.TID 0000.0001) %MON DYG_min                      =   5.0000000000000E+03
(PID.TID 0000.0001) %MON DYG_mean                     =   5.0000000000000E+03
(PID.TID 0000.0001) %MON DYG_sd                       =   0.0000000000000E+00
(PID.TID 0000.0001) %MON DYU_max                      =   5.0000000000000E+03
(PID.TID 0000.0001) %MON DYU_min                      =   5.0000000000000E+03
(PID.TID 0000.0001) %MON DYU_mean                     =   5.0000000000000E+03
(PID.TID 0000.0001) %MON DYU_sd                       =   0.0000000000000E+00
(PID.TID 0000.0001) %MON RA_max                       =   1.2751655629139E+07
(PID.TID 0000.0001) %MON RA_min                       =   5.0000000000000E+05
(PID.TID 0000.0001) %MON RA_mean                      =   5.1250000000000E+06
(PID.TID 0000.0001) %MON RA_sd                        =   4.0634016517952E+06
(PID.TID 0000.0001) %MON RAW_max                      =   1.2751655629139E+07
(PID.TID 0000.0001) %MON RAW_min                      =   5.0000000000000E+05
(PID.TID 0000.0001) %MON RAW_mean                     =   5.1250000000000E+06
(PID.TID 0000.0001) %MON RAW_sd                       =   4.0632477311790E+06
(PID.TID 0000.0001) %MON RAS_max                      =   1.2751655629139E+07
(PID.TID 0000.0001) %MON RAS_min                      =   5.0000000000000E+05
(PID.TID 0000.0001) %MON RAS_mean                     =   5.1250000000000E+06
(PID.TID 0000.0001) %MON RAS_sd                       =   4.0634016517952E+06
(PID.TID 0000.0001) %MON RAZ_max                      =   1.2751655629139E+07
(PID.TID 0000.0001) %MON RAZ_min                      =   5.0000000000000E+05
(PID.TID 0000.0001) %MON RAZ_mean                     =   5.1250000000000E+06
(PID.TID 0000.0001) %MON RAZ_sd                       =   4.0632477311790E+06
(PID.TID 0000.0001) %MON AngleCS_max                  =   1.0000000000000E+00
(PID.TID 0000.0001) %MON AngleCS_min                  =   1.0000000000000E+00
(PID.TID 0000.0001) %MON AngleCS_mean                 =   1.0000000000000E+00
(PID.TID 0000.0001) %MON AngleCS_sd                   =   0.0000000000000E+00
(PID.TID 0000.0001) %MON AngleSN_max                  =   0.0000000000000E+00
(PID.TID 0000.0001) %MON AngleSN_min                  =   0.0000000000000E+00
(PID.TID 0000.0001) %MON AngleSN_mean                 =   0.0000000000000E+00
(PID.TID 0000.0001) %MON AngleSN_sd                   =   0.0000000000000E+00
(PID.TID 0000.0001)  MDS_READVEC_LOC: open file: TRef.bin
(PID.TID 0000.0001) S/R LOAD_REF_FILES: tRef loaded from file: TRef.bin
(PID.TID 0000.0001)  MDS_READ_FIELD: opening global file: topo.bin
(PID.TID 0000.0001) // =======================================================
(PID.TID 0000.0001) // Field Model R_low (ini_masks_etc)
(PID.TID 0000.0001) // CMIN =         -2.000000000000000E+03
(PID.TID 0000.0001) // CMAX =         -1.500000000000000E+03
(PID.TID 0000.0001) // CINT =          1.851851851851852E+01
(PID.TID 0000.0001) // SYMBOLS (CMIN->CMAX): -abcdefghijklmnopqrstuvwxyz+
(PID.TID 0000.0001) //                  0.0: .
(PID.TID 0000.0001) // RANGE I (Lo:Hi:Step):(    -3:   404:     1)
(PID.TID 0000.0001) // RANGE J (Lo:Hi:Step):(     5:    -3:    -1)
(PID.TID 0000.0001) // RANGE K (Lo:Hi:Step):(   1:   1:   1)
(PID.TID 0000.0001) // =======================================================
(PID.TID 0000.0001) K =   1
(PID.TID 0000.0001) //                I=6       I=16      I=26      I=36      I=46      I=56      I=66      I=76      I=86      I=96      I=106     I=116     I=126     I=136     I=146     I=156     I=166     I=176     I=186     I=196     I=206     I=216     I=226     I=236     I=246     I=256     I=266     I=276     I=286     I=296     I=306     I=316     I=326     I=336     I=346     I=356     I=366     I=376     I=386     I=396
(PID.TID 0000.0001) // |--J--|321012345|789012345|789012345|789012345|789012345|789012345|789012345|789012345|789012345|789012345|789012345|789012345|789012345|789012345|789012345|789012345|789012345|789012345|789012345|789012345|789012345|789012345|789012345|789012345|789012345|789012345|789012345|789012345|789012345|789012345|789012345|789012345|789012345|789012345|789012345|789012345|789012345|789012345|789012345|789012345|78901234
(PID.TID 0000.0001) //      5 -----------------------------------------------------------------------------------------------------------------------------------------------------------------------------------acdfgiklnoprstuvwxyyzz+++++++zzyyxwvutsrponlkigfdca----------------------------------------------------------------------------------------------------------------------------------------------------------------------------------
(PID.TID 0000.0001) //      4 -----------------------------------------------------------------------------------------------------------------------------------------------------------------------------------acdfgiklnoprstuvwxyyzz+++++++zzyyxwvutsrponlkigfdca----------------------------------------------------------------------------------------------------------------------------------------------------------------------------------
(PID.TID 0000.0001) //      3 -----------------------------------------------------------------------------------------------------------------------------------------------------------------------------------acdfgiklnoprstuvwxyyzz+++++++zzyyxwvutsrponlkigfdca----------------------------------------------------------------------------------------------------------------------------------------------------------------------------------
(PID.TID 0000.0001) //      2 -----------------------------------------------------------------------------------------------------------------------------------------------------------------------------------acdfgiklnoprstuvwxyyzz+++++++zzyyxwvutsrponlkigfdca----------------------------------------------------------------------------------------------------------------------------------------------------------------------------------
(PID.TID 0000.0001) //      1 -----------------------------------------------------------------------------------------------------------------------------------------------------------------------------------acdfgiklnoprstuvwxyyzz+++++++zzyyxwvutsrponlkigfdca----------------------------------------------------------------------------------------------------------------------------------------------------------------------------------
(PID.TID 0000.0001) //      0 -----------------------------------------------------------------------------------------------------------------------------------------------------------------------------------acdfgiklnoprstuvwxyyzz+++++++zzyyxwvutsrponlkigfdca----------------------------------------------------------------------------------------------------------------------------------------------------------------------------------
(PID.TID 0000.0001) //     -1 -----------------------------------------------------------------------------------------------------------------------------------------------------------------------------------acdfgiklnoprstuvwxyyzz+++++++zzyyxwvutsrponlkigfdca----------------------------------------------------------------------------------------------------------------------------------------------------------------------------------
(PID.TID 0000.0001) //     -2 -----------------------------------------------------------------------------------------------------------------------------------------------------------------------------------acdfgiklnoprstuvwxyyzz+++++++zzyyxwvutsrponlkigfdca----------------------------------------------------------------------------------------------------------------------------------------------------------------------------------
(PID.TID 0000.0001) //     -3 -----------------------------------------------------------------------------------------------------------------------------------------------------------------------------------acdfgiklnoprstuvwxyyzz+++++++zzyyxwvutsrponlkigfdca----------------------------------------------------------------------------------------------------------------------------------------------------------------------------------
(PID.TID 0000.0001) // =======================================================
(PID.TID 0000.0001) // END OF FIELD                                          =
(PID.TID 0000.0001) // =======================================================
(PID.TID 0000.0001) 
(PID.TID 0000.0001) // =======================================================
(PID.TID 0000.0001) // Field Model Ro_surf (ini_masks_etc)
(PID.TID 0000.0001) // CMIN =          1.000000000000000E+32
(PID.TID 0000.0001) // CMAX =         -1.000000000000000E+32
(PID.TID 0000.0001) // CINT =          0.000000000000000E+00
(PID.TID 0000.0001) // SYMBOLS (CMIN->CMAX): -abcdefghijklmnopqrstuvwxyz+
(PID.TID 0000.0001) //                  0.0: .
(PID.TID 0000.0001) // RANGE I (Lo:Hi:Step):(    -3:   404:     1)
(PID.TID 0000.0001) // RANGE J (Lo:Hi:Step):(     5:    -3:    -1)
(PID.TID 0000.0001) // RANGE K (Lo:Hi:Step):(   1:   1:   1)
(PID.TID 0000.0001) // =======================================================
(PID.TID 0000.0001) // =======================================================
(PID.TID 0000.0001) // END OF FIELD                                          =
(PID.TID 0000.0001) // =======================================================
(PID.TID 0000.0001) 
(PID.TID 0000.0001) // =======================================================
(PID.TID 0000.0001) // Field hFacC at iteration          0
(PID.TID 0000.0001) // CMIN =          1.000000000000000E+00
(PID.TID 0000.0001) // CMAX =          1.000000000000000E+00
(PID.TID 0000.0001) // CINT =          0.000000000000000E+00
(PID.TID 0000.0001) // SYMBOLS (CMIN->CMAX): -abcdefghijklmnopqrstuvwxyz+
(PID.TID 0000.0001) //                  0.0: .
(PID.TID 0000.0001) // RANGE I (Lo:Hi:Step):(    -3:   404:     1)
(PID.TID 0000.0001) // RANGE J (Lo:Hi:Step):(     5:    -3:    -1)
(PID.TID 0000.0001) // RANGE K (Lo:Hi:Step):(   1:   1:   1)
(PID.TID 0000.0001) // =======================================================
(PID.TID 0000.0001) // =======================================================
(PID.TID 0000.0001) // END OF FIELD                                          =
(PID.TID 0000.0001) // =======================================================
(PID.TID 0000.0001) 
(PID.TID 0000.0001) // =======================================================
(PID.TID 0000.0001) // Field hFacW at iteration          0
(PID.TID 0000.0001) // CMIN =          1.000000000000000E+00
(PID.TID 0000.0001) // CMAX =          1.000000000000000E+00
(PID.TID 0000.0001) // CINT =          0.000000000000000E+00
(PID.TID 0000.0001) // SYMBOLS (CMIN->CMAX): -abcdefghijklmnopqrstuvwxyz+
(PID.TID 0000.0001) //                  0.0: .
(PID.TID 0000.0001) // RANGE I (Lo:Hi:Step):(    -3:   404:     1)
(PID.TID 0000.0001) // RANGE J (Lo:Hi:Step):(     5:    -3:    -1)
(PID.TID 0000.0001) // RANGE K (Lo:Hi:Step):(   1:   1:   1)
(PID.TID 0000.0001) // =======================================================
(PID.TID 0000.0001) // =======================================================
(PID.TID 0000.0001) // END OF FIELD                                          =
(PID.TID 0000.0001) // =======================================================
(PID.TID 0000.0001) 
(PID.TID 0000.0001) // =======================================================
(PID.TID 0000.0001) // Field hFacS at iteration          0
(PID.TID 0000.0001) // CMIN =          1.000000000000000E+00
(PID.TID 0000.0001) // CMAX =          1.000000000000000E+00
(PID.TID 0000.0001) // CINT =          0.000000000000000E+00
(PID.TID 0000.0001) // SYMBOLS (CMIN->CMAX): -abcdefghijklmnopqrstuvwxyz+
(PID.TID 0000.0001) //                  0.0: .
(PID.TID 0000.0001) // RANGE I (Lo:Hi:Step):(    -3:   404:     1)
(PID.TID 0000.0001) // RANGE J (Lo:Hi:Step):(     5:    -3:    -1)
(PID.TID 0000.0001) // RANGE K (Lo:Hi:Step):(   1:   1:   1)
(PID.TID 0000.0001) // =======================================================
(PID.TID 0000.0001) // =======================================================
(PID.TID 0000.0001) // END OF FIELD                                          =
(PID.TID 0000.0001) // =======================================================
(PID.TID 0000.0001) 
(PID.TID 0000.0001) GAD_INIT_FIXED: GAD_OlMinSize=  2  0  1
(PID.TID 0000.0001) 
(PID.TID 0000.0001) // ===================================
(PID.TID 0000.0001) // GAD parameters :
(PID.TID 0000.0001) // ===================================
(PID.TID 0000.0001) tempAdvScheme =   /* Temp. Horiz.Advection scheme selector */
(PID.TID 0000.0001)                      77
(PID.TID 0000.0001)     ;
(PID.TID 0000.0001) tempVertAdvScheme =   /* Temp. Vert. Advection scheme selector */
(PID.TID 0000.0001)                      77
(PID.TID 0000.0001)     ;
(PID.TID 0000.0001) tempMultiDimAdvec =   /* use Muti-Dim Advec method for Temp */
(PID.TID 0000.0001)                   T
(PID.TID 0000.0001)     ;
(PID.TID 0000.0001) tempSOM_Advection = /* use 2nd Order Moment Advection for Temp */
(PID.TID 0000.0001)                   F
(PID.TID 0000.0001)     ;
(PID.TID 0000.0001) AdamsBashforthGt = /* apply Adams-Bashforth extrapolation on Gt */
(PID.TID 0000.0001)                   F
(PID.TID 0000.0001)     ;
(PID.TID 0000.0001) AdamsBashforth_T = /* apply Adams-Bashforth extrapolation on Temp */
(PID.TID 0000.0001)                   F
(PID.TID 0000.0001)     ;
(PID.TID 0000.0001) saltAdvScheme =   /* Salt. Horiz.advection scheme selector */
(PID.TID 0000.0001)                       2
(PID.TID 0000.0001)     ;
(PID.TID 0000.0001) saltVertAdvScheme =   /* Salt. Vert. Advection scheme selector */
(PID.TID 0000.0001)                       2
(PID.TID 0000.0001)     ;
(PID.TID 0000.0001) saltMultiDimAdvec =   /* use Muti-Dim Advec method for Salt */
(PID.TID 0000.0001)                   F
(PID.TID 0000.0001)     ;
(PID.TID 0000.0001) saltSOM_Advection = /* use 2nd Order Moment Advection for Salt */
(PID.TID 0000.0001)                   F
(PID.TID 0000.0001)     ;
(PID.TID 0000.0001) AdamsBashforthGs = /* apply Adams-Bashforth extrapolation on Gs */
(PID.TID 0000.0001)                   F
(PID.TID 0000.0001)     ;
(PID.TID 0000.0001) AdamsBashforth_S = /* apply Adams-Bashforth extrapolation on Salt */
(PID.TID 0000.0001)                   F
(PID.TID 0000.0001)     ;
(PID.TID 0000.0001) // ===================================
(PID.TID 0000.0001) %MON fCori_max                    =   5.0000000000000E-10
(PID.TID 0000.0001) %MON fCori_min                    =   5.0000000000000E-10
(PID.TID 0000.0001) %MON fCori_mean                   =   5.0000000000000E-10
(PID.TID 0000.0001) %MON fCori_sd                     =   3.6189151799195E-24
(PID.TID 0000.0001) %MON fCoriG_max                   =   0.0000000000000E+00
(PID.TID 0000.0001) %MON fCoriG_min                   =   0.0000000000000E+00
(PID.TID 0000.0001) %MON fCoriG_mean                  =   0.0000000000000E+00
(PID.TID 0000.0001) %MON fCoriG_sd                    =   0.0000000000000E+00
(PID.TID 0000.0001) %MON fCoriCos_max                 =   0.0000000000000E+00
(PID.TID 0000.0001) %MON fCoriCos_min                 =   0.0000000000000E+00
(PID.TID 0000.0001) %MON fCoriCos_mean                =   0.0000000000000E+00
(PID.TID 0000.0001) %MON fCoriCos_sd                  =   0.0000000000000E+00
(PID.TID 0000.0001) INI_CG2D: CG2D normalisation factor =  1.0000000000000001E-05
(PID.TID 0000.0001) 
(PID.TID 0000.0001) INI_CG3D: CG3D normalisation factor =  1.5785347155675579E-06
(PID.TID 0000.0001) 
(PID.TID 0000.0001) // =======================================================
(PID.TID 0000.0001) // Model configuration
(PID.TID 0000.0001) // =======================================================
(PID.TID 0000.0001) //
(PID.TID 0000.0001) // "Physical" paramters ( PARM01 in namelist )
(PID.TID 0000.0001) //
(PID.TID 0000.0001) buoyancyRelation = /* Type of relation to get Buoyancy */
(PID.TID 0000.0001)               'OCEANIC'
(PID.TID 0000.0001)     ;
(PID.TID 0000.0001) fluidIsAir   =  /* fluid major constituent is Air */
(PID.TID 0000.0001)                   F
(PID.TID 0000.0001)     ;
(PID.TID 0000.0001) fluidIsWater =  /* fluid major constituent is Water */
(PID.TID 0000.0001)                   T
(PID.TID 0000.0001)     ;
(PID.TID 0000.0001) usingPCoords =  /* use p (or p*) vertical coordinate */
(PID.TID 0000.0001)                   F
(PID.TID 0000.0001)     ;
(PID.TID 0000.0001) usingZCoords =  /* use z (or z*) vertical coordinate */
(PID.TID 0000.0001)                   T
(PID.TID 0000.0001)     ;
(PID.TID 0000.0001) tRef =   /* Reference temperature profile ( oC or K ) */
(PID.TID 0000.0001)                 2.772408163265306E+01,      /* K =  1 */
(PID.TID 0000.0001)                 2.744816326530612E+01,      /* K =  2 */
(PID.TID 0000.0001)                 2.717224489795919E+01,      /* K =  3 */
(PID.TID 0000.0001)                 2.689632653061225E+01,      /* K =  4 */
(PID.TID 0000.0001)                 2.662040816326531E+01,      /* K =  5 */
(PID.TID 0000.0001)                 2.634448979591837E+01,      /* K =  6 */
(PID.TID 0000.0001)                 2.606857142857143E+01,      /* K =  7 */
(PID.TID 0000.0001)                 2.579265306122449E+01,      /* K =  8 */
(PID.TID 0000.0001)                 2.551673469387755E+01,      /* K =  9 */
(PID.TID 0000.0001)                 2.524081632653061E+01,      /* K = 10 */
(PID.TID 0000.0001)                 2.496489795918367E+01,      /* K = 11 */
(PID.TID 0000.0001)                 2.468897959183674E+01,      /* K = 12 */
(PID.TID 0000.0001)                 2.441306122448980E+01,      /* K = 13 */
(PID.TID 0000.0001)                 2.413714285714286E+01,      /* K = 14 */
(PID.TID 0000.0001)                 2.386122448979592E+01,      /* K = 15 */
(PID.TID 0000.0001)                 2.358530612244898E+01,      /* K = 16 */
(PID.TID 0000.0001)                 2.330938775510204E+01,      /* K = 17 */
(PID.TID 0000.0001)                 2.303346938775510E+01,      /* K = 18 */
(PID.TID 0000.0001)                 2.275755102040817E+01,      /* K = 19 */
(PID.TID 0000.0001)                 2.248163265306123E+01,      /* K = 20 */
(PID.TID 0000.0001)                 2.220571428571429E+01,      /* K = 21 */
(PID.TID 0000.0001)                 2.192979591836735E+01,      /* K = 22 */
(PID.TID 0000.0001)                 2.165387755102041E+01,      /* K = 23 */
(PID.TID 0000.0001)                 2.137795918367348E+01,      /* K = 24 */
(PID.TID 0000.0001)                 2.110204081632654E+01,      /* K = 25 */
(PID.TID 0000.0001)                 2.082612244897960E+01,      /* K = 26 */
(PID.TID 0000.0001)                 2.055020408163266E+01,      /* K = 27 */
(PID.TID 0000.0001)                 2.027428571428572E+01,      /* K = 28 */
(PID.TID 0000.0001)                 1.999836734693878E+01,      /* K = 29 */
(PID.TID 0000.0001)                 1.972244897959184E+01,      /* K = 30 */
(PID.TID 0000.0001)                 1.944653061224490E+01,      /* K = 31 */
(PID.TID 0000.0001)                 1.917061224489796E+01,      /* K = 32 */
(PID.TID 0000.0001)                 1.889469387755102E+01,      /* K = 33 */
(PID.TID 0000.0001)                 1.861877551020408E+01,      /* K = 34 */
(PID.TID 0000.0001)                 1.834285714285714E+01,      /* K = 35 */
(PID.TID 0000.0001)                 1.806693877551020E+01,      /* K = 36 */
(PID.TID 0000.0001)                 1.779102040816326E+01,      /* K = 37 */
(PID.TID 0000.0001)                 1.751510204081632E+01,      /* K = 38 */
(PID.TID 0000.0001)                 1.723918367346938E+01,      /* K = 39 */
(PID.TID 0000.0001)                 1.696326530612244E+01,      /* K = 40 */
(PID.TID 0000.0001)                 1.668734693877551E+01,      /* K = 41 */
(PID.TID 0000.0001)                 1.641142857142857E+01,      /* K = 42 */
(PID.TID 0000.0001)                 1.613551020408163E+01,      /* K = 43 */
(PID.TID 0000.0001)                 1.585959183673469E+01,      /* K = 44 */
(PID.TID 0000.0001)                 1.558367346938775E+01,      /* K = 45 */
(PID.TID 0000.0001)                 1.530775510204081E+01,      /* K = 46 */
(PID.TID 0000.0001)                 1.503183673469387E+01,      /* K = 47 */
(PID.TID 0000.0001)                 1.475591836734693E+01,      /* K = 48 */
(PID.TID 0000.0001)                 1.447999999999999E+01,      /* K = 49 */
(PID.TID 0000.0001)                 1.420408163265305E+01,      /* K = 50 */
(PID.TID 0000.0001)                 1.392816326530611E+01,      /* K = 51 */
(PID.TID 0000.0001)                 1.365224489795917E+01,      /* K = 52 */
(PID.TID 0000.0001)                 1.337632653061223E+01,      /* K = 53 */
(PID.TID 0000.0001)                 1.310040816326529E+01,      /* K = 54 */
(PID.TID 0000.0001)                 1.282448979591836E+01,      /* K = 55 */
(PID.TID 0000.0001)                 1.254857142857142E+01,      /* K = 56 */
(PID.TID 0000.0001)                 1.227265306122448E+01,      /* K = 57 */
(PID.TID 0000.0001)                 1.199673469387754E+01,      /* K = 58 */
(PID.TID 0000.0001)                 1.172081632653060E+01,      /* K = 59 */
(PID.TID 0000.0001)                 1.144489795918366E+01,      /* K = 60 */
(PID.TID 0000.0001)                 1.116897959183672E+01,      /* K = 61 */
(PID.TID 0000.0001)                 1.089306122448978E+01,      /* K = 62 */
(PID.TID 0000.0001)                 1.061714285714284E+01,      /* K = 63 */
(PID.TID 0000.0001)                 1.034122448979590E+01,      /* K = 64 */
(PID.TID 0000.0001)                 1.006530612244896E+01,      /* K = 65 */
(PID.TID 0000.0001)                 9.789387755102023E+00,      /* K = 66 */
(PID.TID 0000.0001)                 9.513469387755084E+00,      /* K = 67 */
(PID.TID 0000.0001)                 9.237551020408144E+00,      /* K = 68 */
(PID.TID 0000.0001)                 8.961632653061205E+00,      /* K = 69 */
(PID.TID 0000.0001)                 8.685714285714266E+00,      /* K = 70 */
(PID.TID 0000.0001)                 8.409795918367326E+00,      /* K = 71 */
(PID.TID 0000.0001)                 8.133877551020387E+00,      /* K = 72 */
(PID.TID 0000.0001)                 7.857959183673447E+00,      /* K = 73 */
(PID.TID 0000.0001)                 7.582040816326508E+00,      /* K = 74 */
(PID.TID 0000.0001)                 7.306122448979568E+00,      /* K = 75 */
(PID.TID 0000.0001)                 7.030204081632629E+00,      /* K = 76 */
(PID.TID 0000.0001)                 6.754285714285690E+00,      /* K = 77 */
(PID.TID 0000.0001)                 6.478367346938750E+00,      /* K = 78 */
(PID.TID 0000.0001)                 6.202448979591811E+00,      /* K = 79 */
(PID.TID 0000.0001)                 5.926530612244871E+00,      /* K = 80 */
(PID.TID 0000.0001)                 5.650612244897932E+00,      /* K = 81 */
(PID.TID 0000.0001)                 5.374693877550992E+00,      /* K = 82 */
(PID.TID 0000.0001)                 5.098775510204053E+00,      /* K = 83 */
(PID.TID 0000.0001)                 4.822857142857114E+00,      /* K = 84 */
(PID.TID 0000.0001)                 4.546938775510174E+00,      /* K = 85 */
(PID.TID 0000.0001)                 4.271020408163235E+00,      /* K = 86 */
(PID.TID 0000.0001)                 3.995102040816295E+00,      /* K = 87 */
(PID.TID 0000.0001)                 3.719183673469356E+00,      /* K = 88 */
(PID.TID 0000.0001)                 3.443265306122417E+00,      /* K = 89 */
(PID.TID 0000.0001)                 3.167346938775477E+00,      /* K = 90 */
(PID.TID 0000.0001)                 2.891428571428538E+00,      /* K = 91 */
(PID.TID 0000.0001)                 2.615510204081598E+00,      /* K = 92 */
(PID.TID 0000.0001)                 2.339591836734659E+00,      /* K = 93 */
(PID.TID 0000.0001)                 2.063673469387719E+00,      /* K = 94 */
(PID.TID 0000.0001)                 1.787755102040780E+00,      /* K = 95 */
(PID.TID 0000.0001)                 1.511836734693841E+00,      /* K = 96 */
(PID.TID 0000.0001)                 1.235918367346901E+00,      /* K = 97 */
(PID.TID 0000.0001)                 9.599999999999618E-01,      /* K = 98 */
(PID.TID 0000.0001)                 6.840816326530224E-01,      /* K = 99 */
(PID.TID 0000.0001)                 4.081632653060829E-01       /* K =100 */
(PID.TID 0000.0001)     ;
(PID.TID 0000.0001) sRef =   /* Reference salinity profile ( psu ) */
(PID.TID 0000.0001)   100 @  3.500000000000000E+01              /* K =  1:100 */
(PID.TID 0000.0001)     ;
(PID.TID 0000.0001) useStrainTensionVisc= /* Use StrainTension Form of Viscous Operator */
(PID.TID 0000.0001)                   F
(PID.TID 0000.0001)     ;
(PID.TID 0000.0001) useVariableVisc = /* Use variable horizontal viscosity */
(PID.TID 0000.0001)                   F
(PID.TID 0000.0001)     ;
(PID.TID 0000.0001) useHarmonicVisc = /* Use harmonic horizontal viscosity */
(PID.TID 0000.0001)                   T
(PID.TID 0000.0001)     ;
(PID.TID 0000.0001) useBiharmonicVisc= /* Use biharmonic horiz.  viscosity */
(PID.TID 0000.0001)                   F
(PID.TID 0000.0001)     ;
(PID.TID 0000.0001) useSmag3D = /* Use isotropic 3-D Smagorinsky viscosity */
(PID.TID 0000.0001)                   F
(PID.TID 0000.0001)     ;
(PID.TID 0000.0001) viscAh  =   /* Lateral harmonic viscosity ( m^2/s ) */
(PID.TID 0000.0001)                 1.000000000000000E-04
(PID.TID 0000.0001)     ;
(PID.TID 0000.0001) viscAhW =   /* Lateral harmonic viscosity in W eq. ( m^2/s ) */
(PID.TID 0000.0001)                 1.000000000000000E-04
(PID.TID 0000.0001)     ;
(PID.TID 0000.0001) viscA4  =   /* Lateral biharmonic viscosity ( m^4/s ) */
(PID.TID 0000.0001)                 0.000000000000000E+00
(PID.TID 0000.0001)     ;
(PID.TID 0000.0001) viscA4W =   /* Lateral biharmonic viscosity in W eq. ( m^2/s ) */
(PID.TID 0000.0001)                 0.000000000000000E+00
(PID.TID 0000.0001)     ;
(PID.TID 0000.0001) no_slip_sides =  /* Viscous BCs: No-slip sides */
(PID.TID 0000.0001)                   F
(PID.TID 0000.0001)     ;
(PID.TID 0000.0001) sideDragFactor = /* side-drag scaling factor (non-dim) */
(PID.TID 0000.0001)                 2.000000000000000E+00
(PID.TID 0000.0001)     ;
(PID.TID 0000.0001) viscArNr = /* vertical profile of vertical viscosity ( m^2/s )*/
(PID.TID 0000.0001)   100 @  1.000000000000000E-05              /* K =  1:100 */
(PID.TID 0000.0001)     ;
(PID.TID 0000.0001) no_slip_bottom =  /* Viscous BCs: No-slip bottom */
(PID.TID 0000.0001)                   F
(PID.TID 0000.0001)     ;
(PID.TID 0000.0001) bottomVisc_pCell = /* Partial-cell in bottom Visc. BC */
(PID.TID 0000.0001)                   F
(PID.TID 0000.0001)     ;
(PID.TID 0000.0001) bottomDragLinear = /* linear bottom-drag coefficient ( m/s ) */
(PID.TID 0000.0001)                 0.000000000000000E+00
(PID.TID 0000.0001)     ;
(PID.TID 0000.0001) bottomDragQuadratic = /* quadratic bottom-drag coefficient (-) */
(PID.TID 0000.0001)                 0.000000000000000E+00
(PID.TID 0000.0001)     ;
(PID.TID 0000.0001) selectBotDragQuadr = /* select quadratic bottom drag options */
(PID.TID 0000.0001)                      -1
(PID.TID 0000.0001)     ;
(PID.TID 0000.0001) diffKhT =   /* Laplacian diffusion of heat laterally ( m^2/s ) */
(PID.TID 0000.0001)                 1.000000000000000E-04
(PID.TID 0000.0001)     ;
(PID.TID 0000.0001) diffK4T =   /* Biharmonic diffusion of heat laterally ( m^4/s ) */
(PID.TID 0000.0001)                 0.000000000000000E+00
(PID.TID 0000.0001)     ;
(PID.TID 0000.0001) diffKhS =   /* Laplacian diffusion of salt laterally ( m^2/s ) */
(PID.TID 0000.0001)                 1.000000000000000E+03
(PID.TID 0000.0001)     ;
(PID.TID 0000.0001) diffK4S =   /* Biharmonic diffusion of salt laterally ( m^4/s ) */
(PID.TID 0000.0001)                 0.000000000000000E+00
(PID.TID 0000.0001)     ;
(PID.TID 0000.0001) diffKrNrT = /* vertical profile of vertical diffusion of Temp ( m^2/s )*/
(PID.TID 0000.0001)   100 @  1.000000000000000E-05              /* K =  1:100 */
(PID.TID 0000.0001)     ;
(PID.TID 0000.0001) diffKrNrS = /* vertical profile of vertical diffusion of Salt ( m^2/s )*/
(PID.TID 0000.0001)   100 @  1.000000000000000E-05              /* K =  1:100 */
(PID.TID 0000.0001)     ;
(PID.TID 0000.0001) diffKrBL79surf = /* Surface diffusion for Bryan and Lewis 79 ( m^2/s ) */
(PID.TID 0000.0001)                 0.000000000000000E+00
(PID.TID 0000.0001)     ;
(PID.TID 0000.0001) diffKrBL79deep = /* Deep diffusion for Bryan and Lewis 1979 ( m^2/s ) */
(PID.TID 0000.0001)                 0.000000000000000E+00
(PID.TID 0000.0001)     ;
(PID.TID 0000.0001) diffKrBL79scl = /* Depth scale for Bryan and Lewis 1979 ( m ) */
(PID.TID 0000.0001)                 2.000000000000000E+02
(PID.TID 0000.0001)     ;
(PID.TID 0000.0001) diffKrBL79Ho = /* Turning depth for Bryan and Lewis 1979 ( m ) */
(PID.TID 0000.0001)                -2.000000000000000E+03
(PID.TID 0000.0001)     ;
(PID.TID 0000.0001) ivdc_kappa = /* Implicit Vertical Diffusivity for Convection ( m^2/s) */
(PID.TID 0000.0001)                 0.000000000000000E+00
(PID.TID 0000.0001)     ;
(PID.TID 0000.0001) hMixCriteria=  /* Criteria for mixed-layer diagnostic */
(PID.TID 0000.0001)                -8.000000000000000E-01
(PID.TID 0000.0001)     ;
(PID.TID 0000.0001) dRhoSmall =  /* Parameter for mixed-layer diagnostic */
(PID.TID 0000.0001)                 1.000000000000000E-06
(PID.TID 0000.0001)     ;
(PID.TID 0000.0001) hMixSmooth=  /* Smoothing parameter for mixed-layer diagnostic */
(PID.TID 0000.0001)                 0.000000000000000E+00
(PID.TID 0000.0001)     ;
(PID.TID 0000.0001) eosType =  /* Type of Equation of State */
(PID.TID 0000.0001)               'LINEAR'
(PID.TID 0000.0001)     ;
(PID.TID 0000.0001) tAlpha = /* Linear EOS thermal expansion coefficient ( 1/oC ) */
(PID.TID 0000.0001)                 2.000000000000000E-04
(PID.TID 0000.0001)     ;
(PID.TID 0000.0001) sBeta  = /* Linear EOS haline contraction coefficient ( 1/psu ) */
(PID.TID 0000.0001)                 0.000000000000000E+00
(PID.TID 0000.0001)     ;
(PID.TID 0000.0001) rhoNil    = /* Reference density for Linear EOS ( kg/m^3 ) */
(PID.TID 0000.0001)                 9.998000000000000E+02
(PID.TID 0000.0001)     ;
(PID.TID 0000.0001) selectP_inEOS_Zc = /* select pressure to use in EOS (0,1,2,3) */
(PID.TID 0000.0001)                       0
(PID.TID 0000.0001)     0= -g*rhoConst*z ; 1= pRef (from tRef,sRef); 2= Hyd P ; 3= Hyd+NH P
(PID.TID 0000.0001)     ;
(PID.TID 0000.0001) HeatCapacity_Cp =  /* Specific heat capacity ( J/kg/K ) */
(PID.TID 0000.0001)                 3.994000000000000E+03
(PID.TID 0000.0001)     ;
(PID.TID 0000.0001) celsius2K = /* 0 degree Celsius converted to Kelvin ( K ) */
(PID.TID 0000.0001)                 2.731500000000000E+02
(PID.TID 0000.0001)     ;
(PID.TID 0000.0001) rhoConst  = /* Reference density (Boussinesq)  ( kg/m^3 ) */
(PID.TID 0000.0001)                 9.998000000000000E+02
(PID.TID 0000.0001)     ;
(PID.TID 0000.0001) rhoFacC = /* normalized Reference density @ cell-Center (-) */
(PID.TID 0000.0001)   100 @  1.000000000000000E+00              /* K =  1:100 */
(PID.TID 0000.0001)     ;
(PID.TID 0000.0001) rhoFacF = /* normalized Reference density @ W-Interface (-) */
(PID.TID 0000.0001)   101 @  1.000000000000000E+00              /* K =  1:101 */
(PID.TID 0000.0001)     ;
(PID.TID 0000.0001) rhoConstFresh = /* Fresh-water reference density ( kg/m^3 ) */
(PID.TID 0000.0001)                 9.998000000000000E+02
(PID.TID 0000.0001)     ;
(PID.TID 0000.0001) gravity =   /* Gravitational acceleration ( m/s^2 ) */
(PID.TID 0000.0001)                 9.810000000000000E+00
(PID.TID 0000.0001)     ;
(PID.TID 0000.0001) gBaro =   /* Barotropic gravity ( m/s^2 ) */
(PID.TID 0000.0001)                 9.810000000000000E+00
(PID.TID 0000.0001)     ;
(PID.TID 0000.0001) gravFacC = /* gravity factor (vs surf.) @ cell-Center (-) */
(PID.TID 0000.0001)   100 @  1.000000000000000E+00              /* K =  1:100 */
(PID.TID 0000.0001)     ;
(PID.TID 0000.0001) gravFacF = /* gravity factor (vs surf.) @ W-Interface (-) */
(PID.TID 0000.0001)   101 @  1.000000000000000E+00              /* K =  1:101 */
(PID.TID 0000.0001)     ;
(PID.TID 0000.0001) rotationPeriod =   /* Rotation Period ( s ) */
(PID.TID 0000.0001)                 8.616400000000000E+04
(PID.TID 0000.0001)     ;
(PID.TID 0000.0001) omega =   /* Angular velocity ( rad/s ) */
(PID.TID 0000.0001)                 7.292123516990375E-05
(PID.TID 0000.0001)     ;
(PID.TID 0000.0001) f0 =   /* Reference coriolis parameter ( 1/s ) */
(PID.TID 0000.0001)                 0.000000000000000E+00
(PID.TID 0000.0001)     ;
(PID.TID 0000.0001) beta =   /* Beta ( 1/(m.s) ) */
(PID.TID 0000.0001)                 2.000000000000000E-13
(PID.TID 0000.0001)     ;
(PID.TID 0000.0001) fPrime =   /* Second coriolis parameter ( 1/s ) */
(PID.TID 0000.0001)                 0.000000000000000E+00
(PID.TID 0000.0001)     ;
(PID.TID 0000.0001) rigidLid =   /* Rigid lid on/off flag */
(PID.TID 0000.0001)                   F
(PID.TID 0000.0001)     ;
(PID.TID 0000.0001) implicitFreeSurface =   /* Implicit free surface on/off flag */
(PID.TID 0000.0001)                   T
(PID.TID 0000.0001)     ;
(PID.TID 0000.0001) freeSurfFac =   /* Implicit free surface factor */
(PID.TID 0000.0001)                 1.000000000000000E+00
(PID.TID 0000.0001)     ;
(PID.TID 0000.0001) implicSurfPress =  /* Surface Pressure implicit factor (0-1)*/
(PID.TID 0000.0001)                 1.000000000000000E+00
(PID.TID 0000.0001)     ;
(PID.TID 0000.0001) implicDiv2DFlow =  /* Barot. Flow Div. implicit factor (0-1)*/
(PID.TID 0000.0001)                 1.000000000000000E+00
(PID.TID 0000.0001)     ;
(PID.TID 0000.0001) uniformLin_PhiSurf = /* use uniform Bo_surf on/off flag*/
(PID.TID 0000.0001)                   T
(PID.TID 0000.0001)     ;
(PID.TID 0000.0001) uniformFreeSurfLev = /* free-surface level-index is uniform */
(PID.TID 0000.0001)                   T
(PID.TID 0000.0001)     ;
(PID.TID 0000.0001) hFacMin =   /* minimum partial cell factor (hFac) */
(PID.TID 0000.0001)                 1.000000000000000E-01
(PID.TID 0000.0001)     ;
(PID.TID 0000.0001) hFacMinDr = /* minimum partial cell thickness ( m) */
(PID.TID 0000.0001)                 0.000000000000000E+00
(PID.TID 0000.0001)     ;
(PID.TID 0000.0001) exactConserv =  /* Exact Volume Conservation on/off flag*/
(PID.TID 0000.0001)                   F
(PID.TID 0000.0001)     ;
(PID.TID 0000.0001) linFSConserveTr = /* Tracer correction for Lin Free Surface on/off flag*/
(PID.TID 0000.0001)                   F
(PID.TID 0000.0001)     ;
(PID.TID 0000.0001) nonlinFreeSurf = /* Non-linear Free Surf. options (-1,0,1,2,3)*/
(PID.TID 0000.0001)                       0
(PID.TID 0000.0001)      -1,0= Off ; 1,2,3= On, 2=+rescale gU,gV, 3=+update cg2d solv.
(PID.TID 0000.0001)     ;
(PID.TID 0000.0001) hFacInf =   /* lower threshold for hFac (nonlinFreeSurf only)*/
(PID.TID 0000.0001)                 2.000000000000000E-01
(PID.TID 0000.0001)     ;
(PID.TID 0000.0001) hFacSup =   /* upper threshold for hFac (nonlinFreeSurf only)*/
(PID.TID 0000.0001)                 2.000000000000000E+00
(PID.TID 0000.0001)     ;
(PID.TID 0000.0001) select_rStar = /* r* Vertical coord. options (=0 r coord.; >0 uses r*)*/
(PID.TID 0000.0001)                       0
(PID.TID 0000.0001)     ;
(PID.TID 0000.0001) useRealFreshWaterFlux = /* Real Fresh Water Flux on/off flag*/
(PID.TID 0000.0001)                   F
(PID.TID 0000.0001)     ;
(PID.TID 0000.0001) temp_EvPrRn = /* Temp. of Evap/Prec/R (UNSET=use local T)(oC)*/
(PID.TID 0000.0001)                 1.234567000000000E+05
(PID.TID 0000.0001)     ;
(PID.TID 0000.0001) salt_EvPrRn = /* Salin. of Evap/Prec/R (UNSET=use local S)(psu)*/
(PID.TID 0000.0001)                 0.000000000000000E+00
(PID.TID 0000.0001)     ;
(PID.TID 0000.0001) selectAddFluid = /* option for mass source/sink of fluid (=0: off) */
(PID.TID 0000.0001)                       0
(PID.TID 0000.0001)     ;
(PID.TID 0000.0001) temp_addMass = /* Temp. of addMass array (UNSET=use local T)(oC)*/
(PID.TID 0000.0001)                 1.234567000000000E+05
(PID.TID 0000.0001)     ;
(PID.TID 0000.0001) salt_addMass = /* Salin. of addMass array (UNSET=use local S)(psu)*/
(PID.TID 0000.0001)                 0.000000000000000E+00
(PID.TID 0000.0001)     ;
(PID.TID 0000.0001) convertFW2Salt = /* convert F.W. Flux to Salt Flux (-1=use local S)(psu)*/
(PID.TID 0000.0001)                 3.500000000000000E+01
(PID.TID 0000.0001)     ;
(PID.TID 0000.0001) use3Dsolver = /* use 3-D pressure solver on/off flag */
(PID.TID 0000.0001)                   T
(PID.TID 0000.0001)     ;
(PID.TID 0000.0001) nonHydrostatic =  /* Non-Hydrostatic on/off flag */
(PID.TID 0000.0001)                   T
(PID.TID 0000.0001)     ;
(PID.TID 0000.0001) nh_Am2 = /* Non-Hydrostatic terms scaling factor */
(PID.TID 0000.0001)                 1.000000000000000E+00
(PID.TID 0000.0001)     ;
(PID.TID 0000.0001) implicitNHPress = /* Non-Hyd Pressure implicit factor (0-1)*/
(PID.TID 0000.0001)                 1.000000000000000E+00
(PID.TID 0000.0001)     ;
(PID.TID 0000.0001) selectNHfreeSurf = /* Non-Hyd (free-)Surface option */
(PID.TID 0000.0001)                       0
(PID.TID 0000.0001)     ;
(PID.TID 0000.0001) quasiHydrostatic = /* Quasi-Hydrostatic on/off flag */
(PID.TID 0000.0001)                   F
(PID.TID 0000.0001)     ;
(PID.TID 0000.0001) calc_wVelocity = /* vertical velocity calculation on/off flag */
(PID.TID 0000.0001)                   T
(PID.TID 0000.0001)     ;
(PID.TID 0000.0001) momStepping =  /* Momentum equation on/off flag */
(PID.TID 0000.0001)                   T
(PID.TID 0000.0001)     ;
(PID.TID 0000.0001) vectorInvariantMomentum= /* Vector-Invariant Momentum on/off */
(PID.TID 0000.0001)                   F
(PID.TID 0000.0001)     ;
(PID.TID 0000.0001) momAdvection =  /* Momentum advection on/off flag */
(PID.TID 0000.0001)                   T
(PID.TID 0000.0001)     ;
(PID.TID 0000.0001) momViscosity =  /* Momentum viscosity on/off flag */
(PID.TID 0000.0001)                   T
(PID.TID 0000.0001)     ;
(PID.TID 0000.0001) momImplVertAdv= /* Momentum implicit vert. advection on/off*/
(PID.TID 0000.0001)                   F
(PID.TID 0000.0001)     ;
(PID.TID 0000.0001) implicitViscosity = /* Implicit viscosity on/off flag */
(PID.TID 0000.0001)                   T
(PID.TID 0000.0001)     ;
(PID.TID 0000.0001) selectImplicitDrag= /* Implicit bot Drag options (0,1,2)*/
(PID.TID 0000.0001)                       0
(PID.TID 0000.0001)     0= Expl. ; 1= Impl. on provis. Vel ; 2= Fully Impl (with surf.P)
(PID.TID 0000.0001)     ;
(PID.TID 0000.0001) metricTerms =  /* metric-Terms on/off flag */
(PID.TID 0000.0001)                   F
(PID.TID 0000.0001)     ;
(PID.TID 0000.0001) useNHMTerms = /* Non-Hydrostatic Metric-Terms on/off */
(PID.TID 0000.0001)                   F
(PID.TID 0000.0001)     ;
(PID.TID 0000.0001) selectCoriMap = /* Coriolis Map options (0,1,2,3)*/
(PID.TID 0000.0001)                       1
(PID.TID 0000.0001)     0= f-Plane ; 1= Beta-Plane ; 2= Spherical ; 3= read from file
(PID.TID 0000.0001)     ;
(PID.TID 0000.0001) use3dCoriolis = /* 3-D Coriolis on/off flag */
(PID.TID 0000.0001)                   F
(PID.TID 0000.0001)     ;
(PID.TID 0000.0001) useCoriolis =  /* Coriolis on/off flag */
(PID.TID 0000.0001)                   T
(PID.TID 0000.0001)     ;
(PID.TID 0000.0001) useCDscheme =  /* CD scheme on/off flag */
(PID.TID 0000.0001)                   F
(PID.TID 0000.0001)     ;
(PID.TID 0000.0001) useEnergyConservingCoriolis= /* Flx-Form Coriolis scheme flag */
(PID.TID 0000.0001)                   F
(PID.TID 0000.0001)     ;
(PID.TID 0000.0001) useJamartWetPoints= /* Coriolis WetPoints method flag */
(PID.TID 0000.0001)                   F
(PID.TID 0000.0001)     ;
(PID.TID 0000.0001) useJamartMomAdv= /* V.I Non-linear terms Jamart flag */
(PID.TID 0000.0001)                   F
(PID.TID 0000.0001)     ;
(PID.TID 0000.0001) useAbsVorticity= /* V.I Works with f+zeta in Coriolis */
(PID.TID 0000.0001)                   F
(PID.TID 0000.0001)     ;
(PID.TID 0000.0001) selectVortScheme= /* V.I Scheme selector for Vorticity-Term */
(PID.TID 0000.0001)               123456789
(PID.TID 0000.0001)    = 0 : enstrophy (Shallow-Water Eq.) conserving scheme by Sadourny, JAS 75
(PID.TID 0000.0001)    = 1 : same as 0 with modified hFac
(PID.TID 0000.0001)    = 2 : energy conserving scheme (used by Sadourny in JAS 75 paper)
(PID.TID 0000.0001)    = 3 : energy (general) and enstrophy (2D, nonDiv.) conserving scheme
(PID.TID 0000.0001)          from Sadourny (Burridge & Haseler, ECMWF Rep.4, 1977)
(PID.TID 0000.0001)     ;
(PID.TID 0000.0001) upwindVorticity= /* V.I Upwind bias vorticity flag */
(PID.TID 0000.0001)                   F
(PID.TID 0000.0001)     ;
(PID.TID 0000.0001) highOrderVorticity= /* V.I High order vort. advect. flag */
(PID.TID 0000.0001)                   F
(PID.TID 0000.0001)     ;
(PID.TID 0000.0001) upwindShear= /* V.I Upwind vertical Shear advection flag */
(PID.TID 0000.0001)                   F
(PID.TID 0000.0001)     ;
(PID.TID 0000.0001) selectKEscheme= /* V.I Kinetic Energy scheme selector */
(PID.TID 0000.0001)                       0
(PID.TID 0000.0001)     ;
(PID.TID 0000.0001) momForcing =  /* Momentum forcing on/off flag */
(PID.TID 0000.0001)                   T
(PID.TID 0000.0001)     ;
(PID.TID 0000.0001) momTidalForcing = /* Momentum Tidal forcing on/off flag */
(PID.TID 0000.0001)                   T
(PID.TID 0000.0001)     ;
(PID.TID 0000.0001) momPressureForcing =  /* Momentum pressure term on/off flag */
(PID.TID 0000.0001)                   T
(PID.TID 0000.0001)     ;
(PID.TID 0000.0001) implicitIntGravWave= /* Implicit Internal Gravity Wave flag */
(PID.TID 0000.0001)                   F
(PID.TID 0000.0001)     ;
(PID.TID 0000.0001) staggerTimeStep =    /* Stagger time stepping on/off flag */
(PID.TID 0000.0001)                   T
(PID.TID 0000.0001)     ;
(PID.TID 0000.0001) doResetHFactors = /* reset thickness factors @ each time-step */
(PID.TID 0000.0001)                   F
(PID.TID 0000.0001)     ;
(PID.TID 0000.0001) multiDimAdvection =  /* enable/disable Multi-Dim Advection */
(PID.TID 0000.0001)                   T
(PID.TID 0000.0001)     ;
(PID.TID 0000.0001) useMultiDimAdvec =   /* Multi-Dim Advection is/is-not used */
(PID.TID 0000.0001)                   T
(PID.TID 0000.0001)     ;
(PID.TID 0000.0001) implicitDiffusion = /* Implicit Diffusion on/off flag */
(PID.TID 0000.0001)                   T
(PID.TID 0000.0001)     ;
(PID.TID 0000.0001) tempStepping =  /* Temperature equation on/off flag */
(PID.TID 0000.0001)                   T
(PID.TID 0000.0001)     ;
(PID.TID 0000.0001) tempAdvection = /* Temperature advection on/off flag */
(PID.TID 0000.0001)                   T
(PID.TID 0000.0001)     ;
(PID.TID 0000.0001) tempImplVertAdv = /* Temp. implicit vert. advection on/off */
(PID.TID 0000.0001)                   F
(PID.TID 0000.0001)     ;
(PID.TID 0000.0001) tempForcing  =  /* Temperature forcing on/off flag */
(PID.TID 0000.0001)                   T
(PID.TID 0000.0001)     ;
(PID.TID 0000.0001) doThetaClimRelax = /* apply SST relaxation on/off flag */
(PID.TID 0000.0001)                   F
(PID.TID 0000.0001)     ;
(PID.TID 0000.0001) tempIsActiveTr = /* Temp. is a dynamically Active Tracer */
(PID.TID 0000.0001)                   T
(PID.TID 0000.0001)     ;
(PID.TID 0000.0001) saltStepping =  /* Salinity equation on/off flag */
(PID.TID 0000.0001)                   F
(PID.TID 0000.0001)     ;
(PID.TID 0000.0001) saltAdvection = /* Salinity advection on/off flag */
(PID.TID 0000.0001)                   F
(PID.TID 0000.0001)     ;
(PID.TID 0000.0001) saltImplVertAdv = /* Sali. implicit vert. advection on/off */
(PID.TID 0000.0001)                   F
(PID.TID 0000.0001)     ;
(PID.TID 0000.0001) saltForcing  =  /* Salinity forcing on/off flag */
(PID.TID 0000.0001)                   F
(PID.TID 0000.0001)     ;
(PID.TID 0000.0001) doSaltClimRelax = /* apply SSS relaxation on/off flag */
(PID.TID 0000.0001)                   F
(PID.TID 0000.0001)     ;
(PID.TID 0000.0001) saltIsActiveTr = /* Salt  is a dynamically Active Tracer */
(PID.TID 0000.0001)                   F
(PID.TID 0000.0001)     ;
(PID.TID 0000.0001)  readBinaryPrec = /* Precision used for reading binary files */
(PID.TID 0000.0001)                      64
(PID.TID 0000.0001)     ;
(PID.TID 0000.0001) writeBinaryPrec = /* Precision used for writing binary files */
(PID.TID 0000.0001)                      64
(PID.TID 0000.0001)     ;
(PID.TID 0000.0001)  rwSuffixType =   /* select format of mds file suffix */
(PID.TID 0000.0001)                       0
(PID.TID 0000.0001)    = 0 : myIter (I10.10) ;   = 1 : 100*myTime (100th sec) ;
(PID.TID 0000.0001)    = 2 : myTime (seconds);   = 3 : myTime/360 (10th of hr);
(PID.TID 0000.0001)    = 4 : myTime/3600 (hours)
(PID.TID 0000.0001)     ;
(PID.TID 0000.0001)  globalFiles = /* write "global" (=not per tile) files */
(PID.TID 0000.0001)                   F
(PID.TID 0000.0001)     ;
(PID.TID 0000.0001)  useSingleCpuIO = /* only master MPI process does I/O */
(PID.TID 0000.0001)                   T
(PID.TID 0000.0001)     ;
(PID.TID 0000.0001)  useSingleCpuInput = /* only master process reads input */
(PID.TID 0000.0001)                   T
(PID.TID 0000.0001)     ;
(PID.TID 0000.0001) /* debLev[*]  : level of debug & auxiliary message printing */
(PID.TID 0000.0001) debLevZero =  0 ; /* level of disabled aux. msg printing */
(PID.TID 0000.0001)    debLevA =  1 ; /* level of minimum  aux. msg printing */
(PID.TID 0000.0001)    debLevB =  2 ; /* level of low aux. print (report read-file opening)*/
(PID.TID 0000.0001)    debLevC =  3 ; /* level of moderate debug prt (most pkgs debug msg) */
(PID.TID 0000.0001)    debLevD =  4 ; /* level of enhanced debug prt (add DEBUG_STATS prt) */
(PID.TID 0000.0001)    debLevE =  5 ; /* level of extensive debug printing */
(PID.TID 0000.0001) debugLevel =  /* select debug printing level */
(PID.TID 0000.0001)                       2
(PID.TID 0000.0001)     ;
(PID.TID 0000.0001)  plotLevel =  /* select PLOT_FIELD printing level */
(PID.TID 0000.0001)                       2
(PID.TID 0000.0001)     ;
(PID.TID 0000.0001) //
(PID.TID 0000.0001) // Elliptic solver(s) paramters ( PARM02 in namelist )
(PID.TID 0000.0001) //
(PID.TID 0000.0001) cg2dMaxIters =   /* Upper limit on 2d con. grad iterations  */
(PID.TID 0000.0001)                    1000
(PID.TID 0000.0001)     ;
(PID.TID 0000.0001) cg2dChkResFreq =   /* 2d con. grad convergence test frequency */
(PID.TID 0000.0001)                       1
(PID.TID 0000.0001)     ;
(PID.TID 0000.0001) cg2dUseMinResSol= /* use cg2d last-iter(=0) / min-resid.(=1) solution */
(PID.TID 0000.0001)                       0
(PID.TID 0000.0001)     ;
(PID.TID 0000.0001) cg2dTargetResidual =   /* 2d con. grad target residual  */
(PID.TID 0000.0001)                 1.000000000000000E-13
(PID.TID 0000.0001)     ;
(PID.TID 0000.0001) cg2dTargetResWunit =   /* CG2d target residual [W units] */
(PID.TID 0000.0001)                -1.000000000000000E+00
(PID.TID 0000.0001)     ;
(PID.TID 0000.0001) cg2dPreCondFreq =   /* Freq. for updating cg2d preconditioner */
(PID.TID 0000.0001)                       1
(PID.TID 0000.0001)     ;
(PID.TID 0000.0001) useSRCGSolver =  /* use single reduction CG solver(s) */
(PID.TID 0000.0001)                   F
(PID.TID 0000.0001)     ;
(PID.TID 0000.0001) printResidualFreq = /* Freq. for printing CG residual */
(PID.TID 0000.0001)                       0
(PID.TID 0000.0001)     ;
(PID.TID 0000.0001) //
(PID.TID 0000.0001) // Time stepping paramters ( PARM03 in namelist )
(PID.TID 0000.0001) //
(PID.TID 0000.0001) deltaTMom =   /* Momentum equation timestep ( s ) */
(PID.TID 0000.0001)                 6.000000000000000E+00
(PID.TID 0000.0001)     ;
(PID.TID 0000.0001) deltaTFreeSurf = /* FreeSurface equation timestep ( s ) */
(PID.TID 0000.0001)                 6.000000000000000E+00
(PID.TID 0000.0001)     ;
(PID.TID 0000.0001) dTtracerLev =  /* Tracer equation timestep ( s ) */
(PID.TID 0000.0001)   100 @  6.000000000000000E+00              /* K =  1:100 */
(PID.TID 0000.0001)     ;
(PID.TID 0000.0001) deltaTClock  =   /* Model clock timestep ( s ) */
(PID.TID 0000.0001)                 6.000000000000000E+00
(PID.TID 0000.0001)     ;
(PID.TID 0000.0001) cAdjFreq =   /* Convective adjustment interval ( s ) */
(PID.TID 0000.0001)                 0.000000000000000E+00
(PID.TID 0000.0001)     ;
(PID.TID 0000.0001) momForcingOutAB = /* =1: take Momentum Forcing out of Adams-Bash. stepping */
(PID.TID 0000.0001)                       0
(PID.TID 0000.0001)     ;
(PID.TID 0000.0001) tracForcingOutAB = /* =1: take T,S,pTr Forcing out of Adams-Bash. stepping */
(PID.TID 0000.0001)                       0
(PID.TID 0000.0001)     ;
(PID.TID 0000.0001) momDissip_In_AB = /* put Dissipation Tendency in Adams-Bash. stepping */
(PID.TID 0000.0001)                   T
(PID.TID 0000.0001)     ;
(PID.TID 0000.0001) doAB_onGtGs = /* apply AB on Tendencies (rather than on T,S)*/
(PID.TID 0000.0001)                   T
(PID.TID 0000.0001)     ;
(PID.TID 0000.0001) abEps =   /* Adams-Bashforth-2 stabilizing weight */
(PID.TID 0000.0001)                 1.000000000000000E-01
(PID.TID 0000.0001)     ;
(PID.TID 0000.0001) applyExchUV_early = /* Apply EXCH to U,V earlier in time-step */
(PID.TID 0000.0001)                   F
(PID.TID 0000.0001)     ;
(PID.TID 0000.0001) pickupStrictlyMatch= /* stop if pickup do not strictly match */
(PID.TID 0000.0001)                   T
(PID.TID 0000.0001)     ;
(PID.TID 0000.0001) nIter0   =   /* Run starting timestep number */
(PID.TID 0000.0001)                       0
(PID.TID 0000.0001)     ;
(PID.TID 0000.0001) nTimeSteps = /* Number of timesteps */
(PID.TID 0000.0001)                    2500
(PID.TID 0000.0001)     ;
(PID.TID 0000.0001) nEndIter =   /* Run ending timestep number */
(PID.TID 0000.0001)                    2500
(PID.TID 0000.0001)     ;
(PID.TID 0000.0001) baseTime =   /* Model base time ( s ) */
(PID.TID 0000.0001)                 0.000000000000000E+00
(PID.TID 0000.0001)     ;
(PID.TID 0000.0001) startTime =  /* Run start time ( s ) */
(PID.TID 0000.0001)                 0.000000000000000E+00
(PID.TID 0000.0001)     ;
(PID.TID 0000.0001) endTime  =   /* Integration ending time ( s ) */
(PID.TID 0000.0001)                 1.500000000000000E+04
(PID.TID 0000.0001)     ;
(PID.TID 0000.0001) pChkPtFreq = /* Permanent restart/pickup file interval ( s ) */
(PID.TID 0000.0001)                 2.160000000000000E+04
(PID.TID 0000.0001)     ;
(PID.TID 0000.0001) chkPtFreq  = /* Rolling restart/pickup file interval ( s ) */
(PID.TID 0000.0001)                 0.000000000000000E+00
(PID.TID 0000.0001)     ;
(PID.TID 0000.0001) pickup_write_mdsio =   /* Model IO flag. */
(PID.TID 0000.0001)                   T
(PID.TID 0000.0001)     ;
(PID.TID 0000.0001) pickup_read_mdsio =   /* Model IO flag. */
(PID.TID 0000.0001)                   T
(PID.TID 0000.0001)     ;
(PID.TID 0000.0001) writePickupAtEnd =   /* Model IO flag. */
(PID.TID 0000.0001)                   T
(PID.TID 0000.0001)     ;
(PID.TID 0000.0001) dumpFreq =   /* Model state write out interval ( s ). */
(PID.TID 0000.0001)                 3.000000000000000E+02
(PID.TID 0000.0001)     ;
(PID.TID 0000.0001) dumpInitAndLast= /* write out Initial & Last iter. model state */
(PID.TID 0000.0001)                   T
(PID.TID 0000.0001)     ;
(PID.TID 0000.0001) snapshot_mdsio =   /* Model IO flag. */
(PID.TID 0000.0001)                   T
(PID.TID 0000.0001)     ;
(PID.TID 0000.0001) monitorFreq =   /* Monitor output interval ( s ). */
(PID.TID 0000.0001)                 7.200000000000000E+03
(PID.TID 0000.0001)     ;
(PID.TID 0000.0001) monitorSelect = /* select group of variables to monitor */
(PID.TID 0000.0001)                       3
(PID.TID 0000.0001)     ;
(PID.TID 0000.0001) monitor_stdio =   /* Model IO flag. */
(PID.TID 0000.0001)                   T
(PID.TID 0000.0001)     ;
(PID.TID 0000.0001) externForcingPeriod =   /* forcing period (s) */
(PID.TID 0000.0001)                 0.000000000000000E+00
(PID.TID 0000.0001)     ;
(PID.TID 0000.0001) externForcingCycle =   /* period of the cyle (s). */
(PID.TID 0000.0001)                 0.000000000000000E+00
(PID.TID 0000.0001)     ;
(PID.TID 0000.0001) tauThetaClimRelax =   /* relaxation time scale (s) */
(PID.TID 0000.0001)                 0.000000000000000E+00
(PID.TID 0000.0001)     ;
(PID.TID 0000.0001) tauSaltClimRelax =   /* relaxation time scale (s) */
(PID.TID 0000.0001)                 0.000000000000000E+00
(PID.TID 0000.0001)     ;
(PID.TID 0000.0001) latBandClimRelax =   /* max. Lat. where relaxation */
(PID.TID 0000.0001)                 1.500000000000000E+04
(PID.TID 0000.0001)     ;
(PID.TID 0000.0001) //
(PID.TID 0000.0001) // Gridding paramters ( PARM04 in namelist )
(PID.TID 0000.0001) //
(PID.TID 0000.0001) usingCartesianGrid = /* Cartesian coordinates flag ( True/False ) */
(PID.TID 0000.0001)                   T
(PID.TID 0000.0001)     ;
(PID.TID 0000.0001) usingCylindricalGrid = /* Cylindrical coordinates flag ( True/False ) */
(PID.TID 0000.0001)                   F
(PID.TID 0000.0001)     ;
(PID.TID 0000.0001) usingSphericalPolarGrid = /* Spherical coordinates flag ( True/False ) */
(PID.TID 0000.0001)                   F
(PID.TID 0000.0001)     ;
(PID.TID 0000.0001) usingCurvilinearGrid = /* Curvilinear coordinates flag ( True/False ) */
(PID.TID 0000.0001)                   F
(PID.TID 0000.0001)     ;
(PID.TID 0000.0001) useMin4hFacEdges = /* set hFacW,S as minimum of adjacent hFacC factor */
(PID.TID 0000.0001)                   F
(PID.TID 0000.0001)     ;
(PID.TID 0000.0001) interViscAr_pCell = /* account for partial-cell in interior vert. viscosity */
(PID.TID 0000.0001)                   F
(PID.TID 0000.0001)     ;
(PID.TID 0000.0001) interDiffKr_pCell = /* account for partial-cell in interior vert. diffusion */
(PID.TID 0000.0001)                   F
(PID.TID 0000.0001)     ;
(PID.TID 0000.0001) pCellMix_select = /* option to enhance mixing near surface & bottom */
(PID.TID 0000.0001)                       0
(PID.TID 0000.0001)     ;
(PID.TID 0000.0001) selectSigmaCoord = /* Hybrid-Sigma Vert. Coordinate option */
(PID.TID 0000.0001)                       0
(PID.TID 0000.0001)     ;
(PID.TID 0000.0001) rSigmaBnd = /* r/sigma transition ( units of r ==  m ) */
(PID.TID 0000.0001)                 1.234567000000000E+05
(PID.TID 0000.0001)     ;
(PID.TID 0000.0001) rkSign =   /* index orientation relative to vertical coordinate */
(PID.TID 0000.0001)                -1.000000000000000E+00
(PID.TID 0000.0001)     ;
(PID.TID 0000.0001) gravitySign = /* gravity orientation relative to vertical coordinate */
(PID.TID 0000.0001)                -1.000000000000000E+00
(PID.TID 0000.0001)     ;
(PID.TID 0000.0001) seaLev_Z =  /* reference height of sea-level [m] */
(PID.TID 0000.0001)                 0.000000000000000E+00
(PID.TID 0000.0001)     ;
(PID.TID 0000.0001) top_Pres =  /* reference pressure at the top [Pa] */
(PID.TID 0000.0001)                 0.000000000000000E+00
(PID.TID 0000.0001)     ;
(PID.TID 0000.0001) mass2rUnit = /* convert mass per unit area [kg/m2] to r-units [m] */
(PID.TID 0000.0001)                 1.000200040008002E-03
(PID.TID 0000.0001)     ;
(PID.TID 0000.0001) rUnit2mass = /* convert r-units [m] to mass per unit area [kg/m2] */
(PID.TID 0000.0001)                 9.998000000000000E+02
(PID.TID 0000.0001)     ;
(PID.TID 0000.0001) drC =   /* C spacing ( units of r ) */
(PID.TID 0000.0001)                 1.000000000000000E+01,      /* K =  1 */
(PID.TID 0000.0001)    99 @  2.000000000000000E+01,             /* K =  2:100 */
(PID.TID 0000.0001)                 1.000000000000000E+01       /* K =101 */
(PID.TID 0000.0001)     ;
(PID.TID 0000.0001) drF =   /* W spacing ( units of r ) */
(PID.TID 0000.0001)   100 @  2.000000000000000E+01              /* K =  1:100 */
(PID.TID 0000.0001)     ;
(PID.TID 0000.0001) delX = /* U spacing ( m - cartesian, degrees - spherical ) */
(PID.TID 0000.0001)                 2.550331125827815E+03,      /* I =  1 */
(PID.TID 0000.0001)                 2.533995584988962E+03,      /* I =  2 */
(PID.TID 0000.0001)                 2.517660044150110E+03,      /* I =  3 */
(PID.TID 0000.0001)      . . .
(PID.TID 0000.0001)                 9.657836644591612E+02,      /* I = 98 */
(PID.TID 0000.0001)                 9.494481236203090E+02,      /* I = 99 */
(PID.TID 0000.0001)                 9.331125827814569E+02,      /* I =100 */
(PID.TID 0000.0001)                 9.167770419426049E+02,      /* I =101 */
(PID.TID 0000.0001)                 9.004415011037528E+02,      /* I =102 */
(PID.TID 0000.0001)                 8.841059602649007E+02,      /* I =103 */
(PID.TID 0000.0001)      . . .
(PID.TID 0000.0001)                 1.000000000000000E+02,      /* I =198 */
(PID.TID 0000.0001)                 1.000000000000000E+02,      /* I =199 */
(PID.TID 0000.0001)                 1.000000000000000E+02,      /* I =200 */
(PID.TID 0000.0001)                 1.000000000000000E+02,      /* I =201 */
(PID.TID 0000.0001)                 1.000000000000000E+02,      /* I =202 */
(PID.TID 0000.0001)                 1.000000000000000E+02,      /* I =203 */
(PID.TID 0000.0001)      . . .
(PID.TID 0000.0001)                 8.841059602649007E+02,      /* I =298 */
(PID.TID 0000.0001)                 9.004415011037528E+02,      /* I =299 */
(PID.TID 0000.0001)                 9.167770419426049E+02,      /* I =300 */
(PID.TID 0000.0001)                 9.331125827814569E+02,      /* I =301 */
(PID.TID 0000.0001)                 9.494481236203090E+02,      /* I =302 */
(PID.TID 0000.0001)                 9.657836644591612E+02,      /* I =303 */
(PID.TID 0000.0001)      . . .
(PID.TID 0000.0001)                 2.517660044150110E+03,      /* I =398 */
(PID.TID 0000.0001)                 2.533995584988962E+03,      /* I =399 */
(PID.TID 0000.0001)                 2.550331125827815E+03       /* I =400 */
(PID.TID 0000.0001)     ;
(PID.TID 0000.0001) delY = /* V spacing ( m - cartesian, degrees - spherical ) */
(PID.TID 0000.0001)                 5.000000000000000E+03       /* J =  1 */
(PID.TID 0000.0001)     ;
(PID.TID 0000.0001) xgOrigin = /* X-axis origin of West  edge (cartesian: m, lat-lon: deg) */
(PID.TID 0000.0001)                 0.000000000000000E+00
(PID.TID 0000.0001)     ;
(PID.TID 0000.0001) ygOrigin = /* Y-axis origin of South edge (cartesian: m, lat-lon: deg) */
(PID.TID 0000.0001)                 0.000000000000000E+00
(PID.TID 0000.0001)     ;
(PID.TID 0000.0001) rSphere =  /* Radius ( ignored - cartesian, m - spherical ) */
(PID.TID 0000.0001)                 6.370000000000000E+06
(PID.TID 0000.0001)     ;
(PID.TID 0000.0001) deepAtmosphere = /* Deep/Shallow Atmosphere flag (True/False) */
(PID.TID 0000.0001)                   F
(PID.TID 0000.0001)     ;
(PID.TID 0000.0001) xC =  /* xC(:,1,:,1) : P-point X coord ( deg. or m if cartesian) */
(PID.TID 0000.0001)                 1.275165562913908E+03,      /* I =  1 */
(PID.TID 0000.0001)                 3.817328918322296E+03,      /* I =  2 */
(PID.TID 0000.0001)                 6.343156732891833E+03,      /* I =  3 */
(PID.TID 0000.0001)      . . .
(PID.TID 0000.0001)                 1.718067328918322E+05,      /* I = 98 */
(PID.TID 0000.0001)                 1.727643487858720E+05,      /* I = 99 */
(PID.TID 0000.0001)                 1.737056291390728E+05,      /* I =100 */
(PID.TID 0000.0001)                 1.746305739514349E+05,      /* I =101 */
(PID.TID 0000.0001)                 1.755391832229581E+05,      /* I =102 */
(PID.TID 0000.0001)                 1.764314569536424E+05,      /* I =103 */
(PID.TID 0000.0001)      . . .
(PID.TID 0000.0001)                 2.047500000000000E+05,      /* I =198 */
(PID.TID 0000.0001)                 2.048500000000000E+05,      /* I =199 */
(PID.TID 0000.0001)                 2.049500000000000E+05,      /* I =200 */
(PID.TID 0000.0001)                 2.050500000000000E+05,      /* I =201 */
(PID.TID 0000.0001)                 2.051500000000000E+05,      /* I =202 */
(PID.TID 0000.0001)                 2.052500000000000E+05,      /* I =203 */
(PID.TID 0000.0001)      . . .
(PID.TID 0000.0001)                 2.335685430463576E+05,      /* I =298 */
(PID.TID 0000.0001)                 2.344608167770419E+05,      /* I =299 */
(PID.TID 0000.0001)                 2.353694260485651E+05,      /* I =300 */
(PID.TID 0000.0001)                 2.362943708609271E+05,      /* I =301 */
(PID.TID 0000.0001)                 2.372356512141280E+05,      /* I =302 */
(PID.TID 0000.0001)                 2.381932671081677E+05,      /* I =303 */
(PID.TID 0000.0001)      . . .
(PID.TID 0000.0001)                 4.036568432671081E+05,      /* I =398 */
(PID.TID 0000.0001)                 4.061826710816777E+05,      /* I =399 */
(PID.TID 0000.0001)                 4.087248344370860E+05       /* I =400 */
(PID.TID 0000.0001)     ;
(PID.TID 0000.0001) yC =  /* yC(1,:,1,:) : P-point Y coord ( deg. or m if cartesian) */
(PID.TID 0000.0001)                 2.500000000000000E+03       /* J =  1 */
(PID.TID 0000.0001)     ;
(PID.TID 0000.0001) rcoord = /* P-point R coordinate (  units of r ) */
(PID.TID 0000.0001)                -1.000000000000000E+01,      /* K =  1 */
(PID.TID 0000.0001)                -3.000000000000000E+01,      /* K =  2 */
(PID.TID 0000.0001)                -5.000000000000000E+01,      /* K =  3 */
(PID.TID 0000.0001)                -7.000000000000000E+01,      /* K =  4 */
(PID.TID 0000.0001)                -9.000000000000000E+01,      /* K =  5 */
(PID.TID 0000.0001)                -1.100000000000000E+02,      /* K =  6 */
(PID.TID 0000.0001)                -1.300000000000000E+02,      /* K =  7 */
[...]
 cg2d: Sum(rhs),rhsMax =  -6.63913368725844E-13  1.93174498473779E-02
 cg3d: Sum(rhs),rhsMax =   4.37158718512992E-14  6.79123545370267E-05
 cg2d: Sum(rhs),rhsMax =  -7.45958850245643E-13  1.92774352602419E-02
 cg3d: Sum(rhs),rhsMax =  -3.05259334113352E-13  6.98798007609234E-05
 cg2d: Sum(rhs),rhsMax =  -7.81374964731185E-13  1.92370269677959E-02
 cg3d: Sum(rhs),rhsMax =  -1.26587268092912E-13  6.51362619685922E-05
 cg2d: Sum(rhs),rhsMax =  -7.75268738095747E-13  1.91962228486842E-02
 cg3d: Sum(rhs),rhsMax =   1.54035702785603E-13  6.85697164186966E-05
 cg2d: Sum(rhs),rhsMax =  -7.49733608529368E-13  1.91550207797985E-02
 cg3d: Sum(rhs),rhsMax =  -5.21441413946265E-13  6.96234001730249E-05
 cg2d: Sum(rhs),rhsMax =  -8.71525074330748E-13  1.91134186369942E-02
 cg3d: Sum(rhs),rhsMax =  -1.36301075135715E-12  6.90244933573896E-05
 cg2d: Sum(rhs),rhsMax =  -8.76632100244024E-13  1.90714142958380E-02
 cg3d: Sum(rhs),rhsMax =  -8.03238474133628E-13  6.94550802985337E-05
 cg2d: Sum(rhs),rhsMax =  -8.71969163540598E-13  1.90290056323877E-02
 cg3d: Sum(rhs),rhsMax =  -1.17861409278379E-12  6.94748829741807E-05
 cg2d: Sum(rhs),rhsMax =  -1.03594910427773E-12  1.89861905240030E-02
 cg3d: Sum(rhs),rhsMax =  -1.48348963626874E-12  6.87163419149922E-05
 cg2d: Sum(rhs),rhsMax =  -1.02040598193298E-12  1.89429668501875E-02
 cg3d: Sum(rhs),rhsMax =  -1.75020513761091E-12  6.92119330828225E-05
 cg2d: Sum(rhs),rhsMax =  -1.05848663167762E-12  1.88993324934608E-02
 cg3d: Sum(rhs),rhsMax =  -1.96909538337003E-12  7.01776686565401E-05
 cg2d: Sum(rhs),rhsMax =  -1.18027809747900E-12  1.88552853402607E-02
 cg3d: Sum(rhs),rhsMax =  -1.86000991999724E-12  6.94127481821182E-05
 cg2d: Sum(rhs),rhsMax =  -1.11877174191477E-12  1.88108232818748E-02
 cg3d: Sum(rhs),rhsMax =  -1.88977232672908E-12  6.89065603031997E-05
 cg2d: Sum(rhs),rhsMax =  -1.19937393350256E-12  1.87659442154006E-02
 cg3d: Sum(rhs),rhsMax =  -1.64202027863115E-12  7.08653930884416E-05
 cg2d: Sum(rhs),rhsMax =  -1.30051525104591E-12  1.87206460447331E-02
 cg3d: Sum(rhs),rhsMax =  -2.16636956854380E-13  7.00888194845001E-05
 cg2d: Sum(rhs),rhsMax =  -1.33004718350094E-12  1.86749266815798E-02
 cg3d: Sum(rhs),rhsMax =  -9.52697346197091E-13  7.03365660437180E-05
 cg2d: Sum(rhs),rhsMax =  -1.34425803821614E-12  1.86287840465016E-02
 cg3d: Sum(rhs),rhsMax =  -1.48663896914114E-12  6.84678966607275E-05
 cg2d: Sum(rhs),rhsMax =  -1.40965017436656E-12  1.85822160699789E-02
 cg3d: Sum(rhs),rhsMax =  -1.36748679193483E-12  7.17767847834872E-05
 cg2d: Sum(rhs),rhsMax =  -1.49180667818882E-12  1.85352206935029E-02
 cg3d: Sum(rhs),rhsMax =  -1.39215795975348E-12  7.09864036770508E-05
 cg2d: Sum(rhs),rhsMax =  -1.48103751484996E-12  1.84877958706897E-02
 cg3d: Sum(rhs),rhsMax =  -1.32466298469040E-12  7.12219321177786E-05
 cg2d: Sum(rhs),rhsMax =  -1.51623158473058E-12  1.84399395684179E-02
 cg3d: Sum(rhs),rhsMax =  -1.57516327861955E-12  7.14581611834106E-05
 cg2d: Sum(rhs),rhsMax =  -1.62714286489063E-12  1.83916497679874E-02
 cg3d: Sum(rhs),rhsMax =  -1.76376187790885E-12  7.16894475703074E-05
 cg2d: Sum(rhs),rhsMax =  -1.57696078417757E-12  1.83429244662996E-02
 cg3d: Sum(rhs),rhsMax =  -1.69202616463271E-12  7.19194801894796E-05
 cg2d: Sum(rhs),rhsMax =  -1.69841918307156E-12  1.82937616770572E-02
 cg3d: Sum(rhs),rhsMax =  -1.05505735441616E-12  7.21457647504733E-05
 cg2d: Sum(rhs),rhsMax =  -1.71729297449019E-12  1.82441594319836E-02
 cg3d: Sum(rhs),rhsMax =  -1.11899008159758E-12  7.23669398285460E-05
 cg2d: Sum(rhs),rhsMax =  -1.86117787848161E-12  1.81941157820593E-02
 cg3d: Sum(rhs),rhsMax =  -8.12961326471869E-13  7.25866161093293E-05
 cg2d: Sum(rhs),rhsMax =  -1.86339832453086E-12  1.81436287987757E-02
 cg3d: Sum(rhs),rhsMax =  -1.08876700583298E-12  7.28004989501216E-05
 cg2d: Sum(rhs),rhsMax =  -1.85307325040185E-12  1.80926965754050E-02
 cg3d: Sum(rhs),rhsMax =  -1.70275765702828E-12  7.30123496669609E-05
 cg2d: Sum(rhs),rhsMax =  -1.92956761679852E-12  1.80413172282840E-02
 cg3d: Sum(rhs),rhsMax =  -1.29580330501615E-12  7.32185823330739E-05
 cg2d: Sum(rhs),rhsMax =  -2.03848049551425E-12  1.79894888981119E-02
 cg3d: Sum(rhs),rhsMax =  -1.18518469676223E-12  7.34218927916191E-05
 cg2d: Sum(rhs),rhsMax =  -2.09365857983812E-12  1.79372097512602E-02
 cg3d: Sum(rhs),rhsMax =  -1.54362579745618E-12  7.36208878344779E-05
 cg2d: Sum(rhs),rhsMax =  -2.04980477036543E-12  1.78844779810938E-02
 cg3d: Sum(rhs),rhsMax =  -1.46925752441470E-12  7.38140845862715E-05
 cg2d: Sum(rhs),rhsMax =  -2.10176320791788E-12  1.78312918093026E-02
 cg3d: Sum(rhs),rhsMax =  -1.23394737048426E-12  7.40048831743693E-05
 cg2d: Sum(rhs),rhsMax =  -2.25752749827279E-12  1.77776494872411E-02
 cg3d: Sum(rhs),rhsMax =  -7.25857914762483E-13  7.41895059827684E-05
 cg2d: Sum(rhs),rhsMax =  -2.29360974657311E-12  1.77235492972764E-02
 cg3d: Sum(rhs),rhsMax =   1.39330499313592E-14  7.43706521474206E-05
 cg2d: Sum(rhs),rhsMax =  -2.30981900273264E-12  1.76689895541427E-02
 cg3d: Sum(rhs),rhsMax =   7.69778053691210E-14  7.45469613988703E-05
 cg2d: Sum(rhs),rhsMax =  -2.37132535829687E-12  1.76139686063021E-02
 cg3d: Sum(rhs),rhsMax =  -1.07861228019405E-12  7.47168582726508E-05
 cg2d: Sum(rhs),rhsMax =  -2.40696351738734E-12  1.75584848373092E-02
 cg3d: Sum(rhs),rhsMax =  -1.23854773178167E-12  7.48837878139322E-05
 cg2d: Sum(rhs),rhsMax =  -2.51487719538090E-12  1.75025366671806E-02
 cg3d: Sum(rhs),rhsMax =  -1.41141535884139E-12  7.50432779495910E-05
 cg2d: Sum(rhs),rhsMax =  -2.44348985489751E-12  1.74461225537674E-02
 cg3d: Sum(rhs),rhsMax =  -1.58358915410895E-12  7.51994443431033E-05
 cg2d: Sum(rhs),rhsMax =  -2.60269583662875E-12  1.73892409941299E-02
 cg3d: Sum(rhs),rhsMax =  -1.41581010797305E-12  7.53496248005364E-05
 cg2d: Sum(rhs),rhsMax =  -2.59314791861698E-12  1.73318905259148E-02
 cg3d: Sum(rhs),rhsMax =  -1.35284781119271E-12  7.54924453342785E-05
 cg2d: Sum(rhs),rhsMax =  -2.65099053819995E-12  1.72740697287337E-02
 cg3d: Sum(rhs),rhsMax =  -1.28141247104625E-12  7.56318080633150E-05
 cg2d: Sum(rhs),rhsMax =  -2.72792899380647E-12  1.72157772255430E-02
 cg3d: Sum(rhs),rhsMax =  -1.03859758995655E-12  7.57644867070638E-05
 cg2d: Sum(rhs),rhsMax =  -2.74591460680540E-12  1.71570116840246E-02
 cg3d: Sum(rhs),rhsMax =  -7.82882910382128E-13  7.58907396120065E-05
 cg2d: Sum(rhs),rhsMax =  -2.86815016181663E-12  1.70977718179675E-02
 cg3d: Sum(rhs),rhsMax =  -5.71223380011962E-13  7.60132873174666E-05
 cg2d: Sum(rhs),rhsMax =  -2.85682588696545E-12  1.70380563886504E-02
 cg3d: Sum(rhs),rhsMax =  -4.15827855615035E-13  7.61279597616091E-05
 cg2d: Sum(rhs),rhsMax =  -2.95519164694724E-12  1.69778642062252E-02
 cg3d: Sum(rhs),rhsMax =  -9.63134498031619E-13  7.62392769051167E-05
 cg2d: Sum(rhs),rhsMax =  -3.02069480540013E-12  1.69171941311014E-02
 cg3d: Sum(rhs),rhsMax =  -1.02580606769348E-12  7.63438136044570E-05
 cg2d: Sum(rhs),rhsMax =  -2.99094082834017E-12  1.68560450753331E-02
 cg3d: Sum(rhs),rhsMax =  -4.56296611416442E-13  7.64415491387382E-05
 cg2d: Sum(rhs),rhsMax =  -3.09929859554359E-12  1.67944160040068E-02
 cg3d: Sum(rhs),rhsMax =  -4.35959414727370E-13  7.65349035898775E-05
 cg2d: Sum(rhs),rhsMax =  -3.11994874380161E-12  1.67323059366334E-02
 cg3d: Sum(rhs),rhsMax =  -3.45743834563182E-13  7.66207876855598E-05
 cg2d: Sum(rhs),rhsMax =  -3.14392956113352E-12  1.66697139485426E-02
 cg3d: Sum(rhs),rhsMax =  -9.46212844811804E-13  7.66993778304950E-05
 cg2d: Sum(rhs),rhsMax =  -3.19455573105643E-12  1.66066391722821E-02
 cg3d: Sum(rhs),rhsMax =  -2.82712323332584E-13  7.67727055723720E-05
 cg2d: Sum(rhs),rhsMax =  -3.23552296066509E-12  1.65430807990220E-02
 cg3d: Sum(rhs),rhsMax =  -1.73172824889070E-13  7.68391838721117E-05
 cg2d: Sum(rhs),rhsMax =  -3.23485682685032E-12  1.64790380799656E-02
 cg3d: Sum(rhs),rhsMax =  -2.47904605508000E-13  7.68977987875783E-05
 cg2d: Sum(rhs),rhsMax =  -3.21109805412334E-12  1.64145103277672E-02
 cg3d: Sum(rhs),rhsMax =  -2.68817716838569E-13  7.69510995677937E-05
 cg2d: Sum(rhs),rhsMax =  -3.31501492922825E-12  1.63494969179592E-02
 cg3d: Sum(rhs),rhsMax =  -6.96300080039926E-14  7.69975351611348E-05
 cg2d: Sum(rhs),rhsMax =  -3.36142225165759E-12  1.62839972903874E-02
 cg3d: Sum(rhs),rhsMax =  -4.88234906876380E-14  7.70353987851115E-05
 cg2d: Sum(rhs),rhsMax =  -3.47966100378017E-12  1.62180109506583E-02
 cg3d: Sum(rhs),rhsMax =  -4.72220591961532E-13  7.70686116745290E-05
 cg2d: Sum(rhs),rhsMax =  -3.44868578139312E-12  1.61515374715976E-02
 cg3d: Sum(rhs),rhsMax =  -2.00053996534787E-13  7.70941853063172E-05
 cg2d: Sum(rhs),rhsMax =  -3.52473605857995E-12  1.60845764947209E-02
 cg3d: Sum(rhs),rhsMax =  -6.44074635679638E-13  7.71107411348663E-05
 cg2d: Sum(rhs),rhsMax =  -3.56903395726249E-12  1.60171277317197E-02
 cg3d: Sum(rhs),rhsMax =  -3.29191243762881E-13  7.71224426424673E-05
 cg2d: Sum(rhs),rhsMax =  -3.51751960891988E-12  1.59491909659602E-02
 cg3d: Sum(rhs),rhsMax =  -8.15790369081853E-13  7.71256958786971E-05
 cg2d: Sum(rhs),rhsMax =  -3.61932706027801E-12  1.58807660539989E-02
 cg3d: Sum(rhs),rhsMax =  -5.79050467582162E-13  7.71205791878262E-05
 cg2d: Sum(rhs),rhsMax =  -3.69049235615648E-12  1.58118529271138E-02
 cg3d: Sum(rhs),rhsMax =  -7.16389814359392E-13  7.71098465709757E-05
(PID.TID 0000.0001) %CHECKPOINT      2500 ckptA
(PID.TID 0000.0001)   Seconds in section "ALL                    [THE_MODEL_MAIN]":
(PID.TID 0000.0001)           User time:   705.33179299207404
(PID.TID 0000.0001)         System time:   3.3144970559515059
(PID.TID 0000.0001)     Wall clock time:   719.64029192924500
(PID.TID 0000.0001)          No. starts:           1
(PID.TID 0000.0001)           No. stops:           1
(PID.TID 0000.0001)   Seconds in section "INITIALISE_FIXED       [THE_MODEL_MAIN]":
(PID.TID 0000.0001)           User time:  0.10398400248959661
(PID.TID 0000.0001)         System time:  0.45793101424351335
(PID.TID 0000.0001)     Wall clock time:  0.94302487373352051
(PID.TID 0000.0001)          No. starts:           1
(PID.TID 0000.0001)           No. stops:           1
(PID.TID 0000.0001)   Seconds in section "THE_MAIN_LOOP          [THE_MODEL_MAIN]":
(PID.TID 0000.0001)           User time:   705.22780898958445
(PID.TID 0000.0001)         System time:   2.8565660417079926
(PID.TID 0000.0001)     Wall clock time:   718.69721293449402
(PID.TID 0000.0001)          No. starts:           1
(PID.TID 0000.0001)           No. stops:           1
(PID.TID 0000.0001)   Seconds in section "INITIALISE_VARIA    [THE_MAIN_LOOP]":
(PID.TID 0000.0001)           User time:  3.79940047860145569E-002
(PID.TID 0000.0001)         System time:  0.44193300604820251
(PID.TID 0000.0001)     Wall clock time:  0.89041590690612793
(PID.TID 0000.0001)          No. starts:           1
(PID.TID 0000.0001)           No. stops:           1
(PID.TID 0000.0001)   Seconds in section "MAIN LOOP           [THE_MAIN_LOOP]":
(PID.TID 0000.0001)           User time:   705.18981498479843
(PID.TID 0000.0001)         System time:   2.4146330356597900
(PID.TID 0000.0001)     Wall clock time:   717.80675601959229
(PID.TID 0000.0001)          No. starts:           1
(PID.TID 0000.0001)           No. stops:           1
(PID.TID 0000.0001)   Seconds in section "MAIN_DO_LOOP        [THE_MAIN_LOOP]":
(PID.TID 0000.0001)           User time:   705.17087119817734
(PID.TID 0000.0001)         System time:   2.4126350879669189
(PID.TID 0000.0001)     Wall clock time:   717.78936100006104
(PID.TID 0000.0001)          No. starts:        2500
(PID.TID 0000.0001)           No. stops:        2500
(PID.TID 0000.0001)   Seconds in section "FORWARD_STEP        [MAIN_DO_LOOP]":
(PID.TID 0000.0001)           User time:   705.12585777044296
(PID.TID 0000.0001)         System time:   2.4096360206604004
(PID.TID 0000.0001)     Wall clock time:   717.75356101989746
(PID.TID 0000.0001)          No. starts:        2500
(PID.TID 0000.0001)           No. stops:        2500
(PID.TID 0000.0001)   Seconds in section "LOAD_FIELDS_DRIVER  [FORWARD_STEP]":
(PID.TID 0000.0001)           User time:  5.90629577636718750E-002
(PID.TID 0000.0001)         System time:  6.99782371520996094E-003
(PID.TID 0000.0001)     Wall clock time:  5.39741516113281250E-002
(PID.TID 0000.0001)          No. starts:        2500
(PID.TID 0000.0001)           No. stops:        2500
(PID.TID 0000.0001)   Seconds in section "EXTERNAL_FLDS_LOAD [LOAD_FLDS_DRIVER]":
(PID.TID 0000.0001)           User time:  1.79634094238281250E-002
(PID.TID 0000.0001)         System time:  2.99882888793945313E-003
(PID.TID 0000.0001)     Wall clock time:  1.82206630706787109E-002
(PID.TID 0000.0001)          No. starts:        2500
(PID.TID 0000.0001)           No. stops:        2500
(PID.TID 0000.0001)   Seconds in section "DO_ATMOSPHERIC_PHYS [FORWARD_STEP]":
(PID.TID 0000.0001)           User time:  1.60293579101562500E-002
(PID.TID 0000.0001)         System time:   0.0000000000000000
(PID.TID 0000.0001)     Wall clock time:  1.82044506072998047E-002
(PID.TID 0000.0001)          No. starts:        2500
(PID.TID 0000.0001)           No. stops:        2500
(PID.TID 0000.0001)   Seconds in section "DO_OCEANIC_PHYS     [FORWARD_STEP]":
(PID.TID 0000.0001)           User time:   90.305385857820511
(PID.TID 0000.0001)         System time:  0.25695782899856567
(PID.TID 0000.0001)     Wall clock time:   90.591326713562012
(PID.TID 0000.0001)          No. starts:        2500
(PID.TID 0000.0001)           No. stops:        2500
(PID.TID 0000.0001)   Seconds in section "DYNAMICS            [FORWARD_STEP]":
(PID.TID 0000.0001)           User time:   122.30539865791798
(PID.TID 0000.0001)         System time:  0.50792449712753296
(PID.TID 0000.0001)     Wall clock time:   122.82676577568054
(PID.TID 0000.0001)          No. starts:        2500
(PID.TID 0000.0001)           No. stops:        2500
(PID.TID 0000.0001)   Seconds in section "CALC_GW          [DYNAMICS]":
(PID.TID 0000.0001)           User time:   19.073627889156342
(PID.TID 0000.0001)         System time:  5.39935827255249023E-002
(PID.TID 0000.0001)     Wall clock time:   19.105500698089600
(PID.TID 0000.0001)          No. starts:        2500
(PID.TID 0000.0001)           No. stops:        2500
(PID.TID 0000.0001)   Seconds in section "SOLVE_FOR_PRESSURE  [FORWARD_STEP]":
(PID.TID 0000.0001)           User time:   375.73481576144695
(PID.TID 0000.0001)         System time:  0.83387589454650879
(PID.TID 0000.0001)     Wall clock time:   376.52744102478027
(PID.TID 0000.0001)          No. starts:        2500
(PID.TID 0000.0001)           No. stops:        2500
(PID.TID 0000.0001)   Seconds in section "CG3D   [SOLVE_FOR_PRESSURE]":
(PID.TID 0000.0001)           User time:   372.55157616734505
(PID.TID 0000.0001)         System time:  0.81287932395935059
(PID.TID 0000.0001)     Wall clock time:   373.32233285903931
(PID.TID 0000.0001)          No. starts:        2500
(PID.TID 0000.0001)           No. stops:        2500
(PID.TID 0000.0001)   Seconds in section "MOM_CORRECTION_STEP [FORWARD_STEP]":
(PID.TID 0000.0001)           User time:   7.6774385273456573
(PID.TID 0000.0001)         System time:  2.69926786422729492E-002
(PID.TID 0000.0001)     Wall clock time:   7.7116582393646240
(PID.TID 0000.0001)          No. starts:        2500
(PID.TID 0000.0001)           No. stops:        2500
(PID.TID 0000.0001)   Seconds in section "INTEGR_CONTINUITY   [FORWARD_STEP]":
(PID.TID 0000.0001)           User time:   1.4951733946800232
(PID.TID 0000.0001)         System time:  9.99820232391357422E-003
(PID.TID 0000.0001)     Wall clock time:   1.5092897415161133
(PID.TID 0000.0001)          No. starts:        2500
(PID.TID 0000.0001)           No. stops:        2500
(PID.TID 0000.0001)   Seconds in section "BLOCKING_EXCHANGES  [FORWARD_STEP]":
(PID.TID 0000.0001)           User time:   10.440400928258896
(PID.TID 0000.0001)         System time:  2.09977626800537109E-002
(PID.TID 0000.0001)     Wall clock time:   10.485765933990479
(PID.TID 0000.0001)          No. starts:        5000
(PID.TID 0000.0001)           No. stops:        5000
(PID.TID 0000.0001)   Seconds in section "THERMODYNAMICS      [FORWARD_STEP]":
(PID.TID 0000.0001)           User time:   95.634695142507553
(PID.TID 0000.0001)         System time:  0.37794566154479980
(PID.TID 0000.0001)     Wall clock time:   96.001212596893311
(PID.TID 0000.0001)          No. starts:        2500
(PID.TID 0000.0001)           No. stops:        2500
(PID.TID 0000.0001)   Seconds in section "TRC_CORRECTION_STEP [FORWARD_STEP]":
(PID.TID 0000.0001)           User time:  1.50456428527832031E-002
(PID.TID 0000.0001)         System time:  2.99906730651855469E-003
(PID.TID 0000.0001)     Wall clock time:  1.92556381225585938E-002
(PID.TID 0000.0001)          No. starts:        2500
(PID.TID 0000.0001)           No. stops:        2500
(PID.TID 0000.0001)   Seconds in section "DO_STATEVARS_TAVE   [FORWARD_STEP]":
(PID.TID 0000.0001)           User time:  1.10168457031250000E-002
(PID.TID 0000.0001)         System time:  1.99997425079345703E-003
(PID.TID 0000.0001)     Wall clock time:  1.85644626617431641E-002
(PID.TID 0000.0001)          No. starts:        2500
(PID.TID 0000.0001)           No. stops:        2500
(PID.TID 0000.0001)   Seconds in section "MONITOR             [FORWARD_STEP]":
(PID.TID 0000.0001)           User time:  2.28500366210937500E-002
(PID.TID 0000.0001)         System time:  9.99927520751953125E-004
(PID.TID 0000.0001)     Wall clock time:  2.85367965698242188E-002
(PID.TID 0000.0001)          No. starts:        2500
(PID.TID 0000.0001)           No. stops:        2500
(PID.TID 0000.0001)   Seconds in section "DO_THE_MODEL_IO     [FORWARD_STEP]":
(PID.TID 0000.0001)           User time:   1.0617494583129883
(PID.TID 0000.0001)         System time:  0.32795023918151855
(PID.TID 0000.0001)     Wall clock time:   11.448461055755615
(PID.TID 0000.0001)          No. starts:        2500
(PID.TID 0000.0001)           No. stops:        2500
(PID.TID 0000.0001)   Seconds in section "DO_WRITE_PICKUP     [FORWARD_STEP]":
(PID.TID 0000.0001)           User time:  3.21273803710937500E-002
(PID.TID 0000.0001)         System time:  3.00002098083496094E-003
(PID.TID 0000.0001)     Wall clock time:  0.21911501884460449
(PID.TID 0000.0001)          No. starts:        2500
(PID.TID 0000.0001)           No. stops:        2500
(PID.TID 0000.0001) // ======================================================
(PID.TID 0000.0001) // Tile <-> Tile communication statistics
(PID.TID 0000.0001) // ======================================================
(PID.TID 0000.0001) // o Tile number: 000001
(PID.TID 0000.0001) //         No. X exchanges =              0
(PID.TID 0000.0001) //            Max. X spins =              0
(PID.TID 0000.0001) //            Min. X spins =     1000000000
(PID.TID 0000.0001) //          Total. X spins =              0
(PID.TID 0000.0001) //            Avg. X spins =       0.00E+00
(PID.TID 0000.0001) //         No. Y exchanges =              0
(PID.TID 0000.0001) //            Max. Y spins =              0
(PID.TID 0000.0001) //            Min. Y spins =     1000000000
(PID.TID 0000.0001) //          Total. Y spins =              0
(PID.TID 0000.0001) //            Avg. Y spins =       0.00E+00
(PID.TID 0000.0001) // o Thread number: 000001
(PID.TID 0000.0001) //            No. barriers =        4206440
(PID.TID 0000.0001) //      Max. barrier spins =              1
(PID.TID 0000.0001) //      Min. barrier spins =              1
(PID.TID 0000.0001) //     Total barrier spins =        4206440
(PID.TID 0000.0001) //      Avg. barrier spins =       1.00E+00
STOP NORMAL END
** WARNING ** CONFIG_CHECK: Implicit viscosity applies to provisional u,vVel
** WARNING ** => not consistent with final vertical shear (after appling 3-D solver solution
** WARNING ** CONFIG_CHECK: Implicit viscosity not implemented in CALC_GW
** WARNING ** CONFIG_CHECK: Explicit viscosity might become unstable if too large
PROGRAM MAIN: Execution ended Normally
